<?xml version="1.0" encoding="UTF-8"?>
<routes><route id="route_0" edges="6261661840 6261661843 cluster_2005330373_9570454867_9570454868 6926121229 11527550475 11527520856 6926121234 2005330368 cluster_2005330282_2005330434_2005373528_2150497439_#3more 2005373513 2005373544 2005373588 cluster_1662331632_2005373394_2005373478_2005373506 1662331541 2016498858 1663277005 cluster_1674402751_1674402760 2016659948 2016663937 2016663952 2016663927 2016663945 2016663963 9399387341 cluster_2008941360_2008941375 1674408722 cluster_2019091800_2019091802 2016752439 2016750403 2019091751 2016746971 2016746956 cluster_2016746848_2019454426 1674408750 cluster_2016752393_2019454272 2019454911 2019454388 2019454487 cluster_1674408775_2019454133 2016752848 cluster_2016752858_2016764620 1674408781 1673489679 1673489681 1664524186 1721429306 2016769924 1705461379 1706090563 1673435220 1673435222 1663989284 2032511305 1663989241 1663989239 2032511232 1664545438 1663989213 1673636032 1664545436 2024735962 2024735955 9433299079 2024735934 2024735944 2024735913 2024735921 2024735897 2024735890 2024735927 2024735928 11127400552 2024735888 cluster_1684560512_2176570095_2176570119_2176570170 6469857580 6469857579 1684399956 1684336113 1742495420 1664472105 cluster_1664472042_2176570121 cluster_5428015572_5428015573 1664471983 1664471958 11184861711 cluster_11184844522_1664471946_1664471950 9407485653 cluster_1708037975_1708037976_2039926703_9407039363 11484519322 11185030157 2039926716 2039926719 2039926669 2039943055 2039943043 2039943050 2039943041 1702511541 11184908835 1702511559 1702511564 1702511562 9407485465 2038173169 9407485501 2038173171 9407485416 11485086522 11485086521 cluster_11209834697_2039949204 11209860870 cluster_11185189279_9407485502_9407485503 11209879620 11209879627 11975930340" /><vehicle id="bus_0" type="bus" route="route_0" depart="0" /><route id="route_1" edges="6261661840 6261661843 cluster_2005330373_9570454867_9570454868 6926121229 11527550475 11527520856 6926121234 2005330368 cluster_2005330282_2005330434_2005373528_2150497439_#3more 2005373513 2005373544 2005373588 cluster_1662331632_2005373394_2005373478_2005373506 1662331541 2016498858 1663277005 cluster_1674402751_1674402760 2016659948 2016663937 2016663952 2016663927 2016663945 2016663963 9399387341 cluster_2008941360_2008941375 1674408722 cluster_2019091800_2019091802 2016752439 2016750403 2019091751 2016746971 2016746956 cluster_2016746848_2019454426 1674408750 cluster_2016752393_2019454272 2019454911 2019454388 2019454487 cluster_1674408775_2019454133 2016752848 cluster_2016752858_2016764620 1674408781 1673489679 1673489681 1664524186 1721429306 2016769924 1705461379 1706090563 1673435220 1673435222 1663989284 2032511305 1663989241 1663989239 2032511232 1664545438 1663989213 1673636032 1664545436 2024735962 2024735955 9433299079 2024735934 2024735944 2024735913 2024735921 2024735897 2024735890 2024735927 2024735928 11127400552 2024735888 cluster_1684560512_2176570095_2176570119_2176570170 6469857580 6469857579 1684399956 1684336113 1742495420 1664472105 cluster_1664472042_2176570121 cluster_5428015572_5428015573 1664471983 1664471958 11184861711 cluster_11184844522_1664471946_1664471950 9407485653 cluster_1708037975_1708037976_2039926703_9407039363 11484519322 11185030157 2039926716 2039926719 2039926669 2039943055 2039943043 2039943050 2039943041 1702511541 cluster_1664487461_1702511535 11184969648 2039943075 11185001030 9407485394 11185012938 11185007430 6758978179 1664487449 9407485351 7521384146 1702514863 cluster_10860783257_11982377441_1702514858" /><vehicle id="bus_1" type="bus" route="route_1" depart="0" /><route id="route_2" edges="6261661840 6261661843 cluster_2005330373_9570454867_9570454868 6926121229 11527550475 11527520856 6926121234 2005330368 cluster_2005330282_2005330434_2005373528_2150497439_#3more 2005373513 2005373544 2005373588 cluster_1662331632_2005373394_2005373478_2005373506 1662331541 2016498858 1663277005 cluster_1674402751_1674402760 2016659948 2016663937 2016663952 2016663927 2016663945 2016663963 9399387341 cluster_2008941360_2008941375 1674408722 cluster_2019091800_2019091802 2016752439 2016750403 2019091751 2016746971 2016746956 cluster_2016746848_2019454426 1674408750 cluster_2016752393_2019454272 2019454911 2019454388 2019454487 cluster_1674408775_2019454133 2016752848 cluster_2016752858_2016764620 1674408781 1673489679 1673489681 1664524186 1721429306 2016769924 1705461379 1706090563 1673435220 1673435222 1663989284 2032511305 1663989241 1663989239 2032511232 1664545438 1663989213 1673636032 1664545436 2024735962 2024735955 9433299079 2024735934 2024735944 2024735913 2024735921 2024735897 2024735890 2024735927 2024735928 11127400552 2024735888 cluster_1684560512_2176570095_2176570119_2176570170 6469857580 6469857579 1684399956 1684336113 1742495420 1664472105 cluster_1664472042_2176570121 cluster_5428015572_5428015573 1664471983 1664471958 11184861711 cluster_11184844522_1664471946_1664471950 9407485653 cluster_1708037975_1708037976_2039926703_9407039363 11484519322 11185030157 2039926716 2039926719 2039926669 2039943055 2039943043 2039943050 2039943041 1702511541 11184908835 1702511559 1702511564 1702511562 9407485465 2038173169 9407485501 2038173171 9407485416 11485086522 11485086521 cluster_11209834697_2039949204 11209860870 cluster_11185189279_9407485502_9407485503 11209879620 11209879627 11975930340 11982377442" /><vehicle id="bus_2" type="bus" route="route_2" depart="0" /><route id="route_3" edges="6261661840 6261661843 cluster_2005330373_9570454867_9570454868 6926121229 11527550475 11527520856 6926121234 2005330368 cluster_2005330282_2005330434_2005373528_2150497439_#3more 2005373513 2005373544 2005373588 cluster_1662331632_2005373394_2005373478_2005373506 1662331541 2016498858 1663277005 cluster_1674402751_1674402760 2016659948 2016663937 2016663952 2016663927 2016663945 2016663963 9399387341 cluster_2008941360_2008941375 1674408722 cluster_2019091800_2019091802 2016752439 2016750403 2019091751 2016746971 2016746956 cluster_2016746848_2019454426 1674408750 cluster_2016752393_2019454272 2019454911 2019454388 2019454487 cluster_1674408775_2019454133 2016752848 cluster_2016752858_2016764620 1674408781 1673489679 1673489681 1664524186 1721429306 2016769924 1705461379 1706090563 1673435220 1673435222 1663989284 2032511305 1663989241 1663989239 2032511232 1664545438 1663989213 1673636032 1664545436 2024735962 2024735955 9433299079 2024735934 2024735944 2024735913 2024735921 2024735897 2024735890 2024735927 2024735928 11127400552 2024735888 cluster_1684560512_2176570095_2176570119_2176570170 6469857580 6469857579 1684399956 1684399955 1684352312 1684349395 11499385719 4415603951 1684349393 cluster_2176570124_2176570163 1742495427 2024740627 2024740612 1684522712 2024740621 cluster_2194877565_2194877570 cluster_2009301938_2009301939 2009301934 cluster_11941536216_11941536217 11499443105 7258457871 1702560287 1702560273 9586921682 1702530321 1702530319" /><vehicle id="bus_3" type="bus" route="route_3" depart="0" /><route id="route_4" edges="6261661840" /><vehicle id="bus_4" type="bus" route="route_4" depart="0" /><route id="route_5" edges="6261661840 6261661843 cluster_2005330373_9570454867_9570454868 6926121229 11527550475 11527520856 6926121234 2005330368 cluster_2005330282_2005330434_2005373528_2150497439_#3more 2005373513 2005373544 2005373588 cluster_1662331632_2005373394_2005373478_2005373506 cluster_1662331584_6508699230 2005373612 2005373508 1708677906 1673617624 1673617625 1708677909 1708677907 1673617623 1719052051 1719052035 1719052032 1673489701 1719055987 1673489695 1674402843 1674402840 1673489691 1714826125 1714826116 cluster_2030008543_2030008672_2030008676_2030008711 1673489689 1717339310 2016764626 1721429340 cluster_10959285080_1717339311 12128926915 12128915190 1717339313 5189264745 5189264788" /><vehicle id="bus_5" type="bus" route="route_5" depart="0" /><route id="route_6" edges="6261661840 6261661843 cluster_2005330373_9570454867_9570454868 6926121229 11527550475 11527520856 6926121234 2005330368 cluster_2005330282_2005330434_2005373528_2150497439_#3more 2005373513 2005373544 2005373588 cluster_1662331632_2005373394_2005373478_2005373506 cluster_1662331584_6508699230 2005373612 2005373508 1708677906 1673617624 1673617625 1708677909 1708677914 1708677915 1708677918 1673435235 1673435236 1708677921 2448346732 10901513797 1708677928 1703864869 1703864871 1708677933 1662352015" /><vehicle id="bus_6" type="bus" route="route_6" depart="0" /><route id="route_7" edges="6261661840 6261661843 cluster_2005330373_9570454867_9570454868 6926121229 11527550475 11527520856 6926121234 2005330368 cluster_2005330282_2005330434_2005373528_2150497439_#3more 2005373513 2005373544 2005373588 cluster_1662331632_2005373394_2005373478_2005373506 cluster_1662331584_6508699230 2005373612 2005373508 1708677906 1673617624 1673617625 1708677909 1708677907 1673617623 1719052051 1719052035 1719052032 1673489701 1719055987 1673489695 1674402843 1674402840 1673489691 1714826125 1714826116 cluster_2030008543_2030008672_2030008676_2030008711 1673489689 1717339310 2016764626 1721429340 cluster_10959285080_1717339311 12128926915 12128915190 1717339313" /><vehicle id="bus_7" type="bus" route="route_7" depart="0" /><route id="route_8" edges="6261661840 6261661843 cluster_2005330373_9570454867_9570454868 6926121229 11527550475 11527520856 6926121234 2005330368 cluster_2005330282_2005330434_2005373528_2150497439_#3more 2005373513 2005373544 2005373588 cluster_1662331632_2005373394_2005373478_2005373506 cluster_1662331584_6508699230 2005373612 2005373508 1708677906 1673617624 1673617625 1708677909 1708677907 1673617623 1719052051 1719052035 1719052032 1673489701 1719055987 1673489695 1674402843 1674402840 1673489691 1714826125 1714826116 cluster_2030008543_2030008672_2030008676_2030008711 1673489689 1717339310 2016764626 1721429340 cluster_10959285080_1717339311 12128926915 12128915190 1717339313 5189264745" /><vehicle id="bus_8" type="bus" route="route_8" depart="0" /><route id="route_9" edges="6261661840 6261661843 cluster_2005330373_9570454867_9570454868 6926121229 11527550475 11527520856 6926121234 2005330368 cluster_2005330282_2005330434_2005373528_2150497439_#3more 2005373513 2005373544 2005373588 cluster_1662331632_2005373394_2005373478_2005373506 cluster_1662331584_6508699230 2005373612 2005373508 1708677906 1673617624 1673617625 1708677909 1708677907 1673617623 1719052051 1719052035 1719052032 1673489701 1719055987 1673489695 1674402843 1674402840 1673489691 1714826125 1714826116 cluster_2030008543_2030008672_2030008676_2030008711 1673489689 1717339310 2016764626 1721429340 cluster_10959285080_1717339311 12128926915 12128915190 1717339313 5189264745" /><vehicle id="bus_9" type="bus" route="route_9" depart="0" /><route id="route_10" edges="6261661840 6261661843 cluster_2005330373_9570454867_9570454868 6926121229 11527550475 11527520856 6926121234 2005330368 cluster_2005330282_2005330434_2005373528_2150497439_#3more 2005373513 2005373544 2005373588 cluster_1662331632_2005373394_2005373478_2005373506 cluster_1662331584_6508699230 2005373612 2005373508 1708677906 1673617624 1673617625 1708677909 1708677914 1708677915 1708677918 1673435235 1673435236 1708677921 2448346732 10901513797 1708677928 1703864869 1703864871 1708677933 6469964154 3417603527 1709544415 1709006979 1663949881 1665636310 1708677936 2029526744 2028097345 11502440561 2028097335 2009824596 2028098359 1708677931 1663949840 2027871445 2027871449 2175686639 2027872861 11290118529 1685671744 2026329732" /><vehicle id="bus_10" type="bus" route="route_10" depart="0" /><route id="route_11" edges="6261661840 6261661843 cluster_2005330373_9570454867_9570454868 6926121229 11527550475 11527520856 6926121234 2005330368 cluster_2005330282_2005330434_2005373528_2150497439_#3more 2005373513 2005373544 2005373588 cluster_1662331632_2005373394_2005373478_2005373506 cluster_1662331584_6508699230 2005373612 2005373508 1708677906 1673617624 1673617625 1708677909 1708677907 1673617623 1719052051 1719052057 1719052049 10246070411 1719052061 1719052059 1706085640 cluster_1706085646_1706085648 cluster_1719052053_1719052055 10173164160 cluster_1719052046_1719052047 2016498968 cluster_2016498860_2016499027 2016499057 2016498974 2016498940 2016498850 1674402849 1673435227 1673435228 1674402853 1686650579 1674402862 1664545463 1663949686 1663978338 1663300568 1662217199 1663968701 1663978341 1663949762 1663968699 2026293329 1685988137 1663968684 1673640253 cluster_2027862762_6470130954 2027862757 2027862772 2027862768 2027862761 1685854892 2027862767 2027862760 2027862756 2027862771 1685884941 2027862764 2027862755 2027862758 cluster_1685884940_9580213641 9580213642" /><vehicle id="bus_11" type="bus" route="route_11" depart="0" /><route id="route_12" edges="6261661840 6261661843 cluster_2005330373_9570454867_9570454868 6926121229 11527550475 11527520856 6926121234 2005330368 cluster_2005330282_2005330434_2005373528_2150497439_#3more 2005373513 2005373544 2005373588 cluster_1662331632_2005373394_2005373478_2005373506 1662331541 2016498858 1663277005 cluster_1674402751_1674402760 2016659948 2016663937 2016663952 2016663927 2016663945 2016663963 9399387341 cluster_2008941360_2008941375 1674408722 cluster_2019091800_2019091802 2016752439 2016750403 2019091751 2019091755 2019141725 2019454438 cluster_2019454130_2019454545 2019454785 2019454475 2019454877 2019454646 2019454635 2019454547 2019454162 cluster_2019454838_2019454868 2019454124 2019142187 2019091696 cluster_2019091830_2019454672 cluster_3654866788_6508441456 2017324109 1704146252 1704337244 1704337239 1704146187 11350363819 1704146136 cluster_1704146108_2017316919_6463610512_6463610513 1704146065 1704321269 1704321267 1704146034 1704145988 1704321238 cluster_2021436884_6463666680_6463666681 cluster_12124068708_12124068709_2021436893 2021436891 2021436882 2021436880 2021436894 2021435475 2021435476 2021435465 2021435457 2021435472 1704136340 1663187007 1663187004 1704136339 1704136330 1663186906 10577256013 10577256014 2032613056 2032613052" /><vehicle id="bus_12" type="bus" route="route_12" depart="0" /><route id="route_13" edges="6261661840 6261661843 cluster_2005330373_9570454867_9570454868 6926121229 11527550475 11527520856 6926121234 2005330368 cluster_2005330282_2005330434_2005373528_2150497439_#3more 2005373513 2005373544 2005373588 cluster_1662331632_2005373394_2005373478_2005373506 1662331541 2016498858 1663277005 cluster_1674402751_1674402760 2016659948 2016663937 2016663952 2016663927 2016663945 2016663963 9399387341 cluster_2008941360_2008941375 2019142958 2019142651 2019142454 2019142413 2008941300 2019141667 2019142108 2019142385 2019141932 2019141841 2019429117 2019429055 cluster_1635133426_9871488862 2019429227 cluster_2019428881_2019429378 2019429389 cluster_2019429196_2019429313 2019428826 2019429166 2019428908 2019429339 2019429373 cluster_1635133542_2008941284_2008941341_2008941412 665075692 1635133482 665075691 cluster_2609397984_6508698265 2609397983 2431626429 2431626418 2431626417 2431626416 2431626415 2431626414 cluster_2431626413_5954049516 cluster_6468998126_6468998127 11505426277 11359571494 2431626410 6469136343 2431626408 10982366408 cluster_2431626402_5485045968 2175488223 2175488226 1664010788 1663186758 1663186756 9679516734" /><vehicle id="bus_13" type="bus" route="route_13" depart="0" /><route id="route_14" edges="6261661840 6261661843 cluster_2005330373_9570454867_9570454868 6926121229 11527550475 11527520856 6926121234 2005330368 cluster_2005330282_2005330434_2005373528_2150497439_#3more 2005373513 2005373544 2005373588 cluster_1662331632_2005373394_2005373478_2005373506 1662331541 2016498858 1663277005 cluster_1674402751_1674402760 2016659948 2016663937 2016663952 2016663927 2016663945 2016663963 9399387341 cluster_2008941360_2008941375 2019142958 2019142651 2019142454 2019142413 2008941300 2019141667 2019142108 2019142385 2019141932 2019141841 2019429117 2019429055 cluster_1635133426_9871488862 2019429227 cluster_2019428881_2019429378 2019429389 cluster_2019429196_2019429313 2019428826 2019429166 2019428908 2019429339 2019429373 cluster_1635133542_2008941284_2008941341_2008941412 665075692 1635133482 665075691 cluster_2609397984_6508698265 2609397983 2431626429 2431626418 2431626417 2431626416 2431626415 2431626414 cluster_2431626413_5954049516 cluster_6468998126_6468998127 11505426277 11359571494 2431626410 6469136343 2431626408 6469193192" /><vehicle id="bus_14" type="bus" route="route_14" depart="0" /><route id="route_15" edges="6261661840 6261661843 cluster_2005330373_9570454867_9570454868 6926121229 11527550475 11527520856 6926121234 2005330368 cluster_2005330282_2005330434_2005373528_2150497439_#3more 2005373513 2005373544 2005373588 cluster_1662331632_2005373394_2005373478_2005373506 1662331541 2016498858 1663277005 cluster_1674402751_1674402760 2016659948 2016663937 2016663952 2016663927 2016663945 2016663963 9399387341 cluster_2008941360_2008941375 1674408722 cluster_2019091800_2019091802 2016752439 2016750403 2019091751 2016746971 2016746956 cluster_2016746848_2019454426 1674408750 cluster_2016752393_2019454272 2019454911 2019454388 2019454487 cluster_1674408775_2019454133 2016752848 cluster_2016752858_2016764620 1674408781 1673489679 1673489681 1664524186 1721429306 2016769924 1705461379 1706090563 1673435220 1673435222 1663989284 2032511305 1663989241 1663989239 2032511232 1664545438 1663989213 1673636032 1664545436 2024735962 2024735955 9433299079 2024735934 2024735944 2024735913 2024735921 2024735897 2024735890 2024735927 2024735928 11127400552 2024735888 cluster_1684560512_2176570095_2176570119_2176570170 6469857580 6469857579 1684399956 1684336113 1742495420 1664472105 cluster_1664472042_2176570121 cluster_5428015572_5428015573 1664471983 1664471958 11184861711 cluster_11184844522_1664471946_1664471950 9407485653 cluster_1708037975_1708037976_2039926703_9407039363 11484519322 11185030157 2039926716 2039926719 2039926669 2039943055 2039943043 2039943050 2039943041 1702511541 cluster_1664487461_1702511535 cluster_2041826560_9570222032" /><vehicle id="bus_15" type="bus" route="route_15" depart="0" /><route id="route_16" edges="6261661840 6261661843 cluster_2005330373_9570454867_9570454868 6926121229 11527550475 11527520856 6926121234 2005330368 cluster_2005330282_2005330434_2005373528_2150497439_#3more 2005373513 2005373544 2005373588 cluster_1662331632_2005373394_2005373478_2005373506 1662331541 2016498858 1663277005 cluster_1674402751_1674402760 2016659948 2016663937 2016663952 2016663927 2016663945 2016663963 9399387341 cluster_2008941360_2008941375 1674408722 cluster_2019091800_2019091802 2016752439 2016750403 2019091751 2016746971 2016746956 cluster_2016746848_2019454426 1674408750 cluster_2016752393_2019454272 2019454911 2019454388 2019454487 cluster_1674408775_2019454133 2016752848 cluster_2016752858_2016764620 1674408781 1673489679 1673489681 1664524186 1664524163 1673489677 2019462828 1673489641 1705461322 cluster_1673489613_2017324095_2017324103_2017324110 1704321436 1704321429 cluster_1705461315_6464038811 1705350193 1663121389 1663187241 1663187239 1673489562 1705344624 1705344616 1705344613 1702046024 1702046025 1702046022 1702046020 2024715784 cluster_2176570133_2176570173 1673489547 9565432041 11192791193 2041771007 9565432043 9565432044 9407492946 2195219280 2039962511 11183165986 cluster_1664444364_1708037888_1708037889_6510738016 2047985033 2047985015 11211798018 11211742050 11211742042 2047979964 2047690131 1702511493 1702511491" /><vehicle id="bus_16" type="bus" route="route_16" depart="0" /><route id="route_17" edges="6261661840 6261661843 cluster_2005330373_9570454867_9570454868 6926121229 11527550475 11527520856 6926121234 2005330368 cluster_2005330282_2005330434_2005373528_2150497439_#3more 2005373513 2005373544 2005373588 cluster_1662331632_2005373394_2005373478_2005373506 1662331541 2016498858 1663277005 cluster_1674402751_1674402760 2016659948 2016663937 2016663952 2016663927 2016663945 2016663963 9399387341 cluster_2008941360_2008941375 2019142958 2019142651 2019142454 2019142413 2008941300 2019141667 2019142108 2019142385 2019141932 2019141841 2019429117 2019429055 cluster_1635133426_9871488862 2019429227 cluster_2019428881_2019429378 2019429389 cluster_2019429196_2019429313 2019428826 2019429166 2019428908 2019429339 2019429373 cluster_1635133542_2008941284_2008941341_2008941412 665075692 1635133482 665075691 cluster_2609397984_6508698265 2609397983 2431626429 2431626418 2431626417 2431626416 2431626415 2431626414 cluster_2431626413_5954049516 cluster_6468998126_6468998127 11505426277 11359571494 2431626410 6469136343 2431626408 10982366408 cluster_2431626402_5485045968 10959242412 10959242414 5485045973 cluster_2491887730_2491887731 2034619051 cluster_10719069587_1664023657_1665256361 cluster_1664023653_1665256335 2035036945 2035042944 2037507492" /><vehicle id="bus_17" type="bus" route="route_17" depart="0" /><route id="route_18" edges="6261661840 6261661843 cluster_2005330373_9570454867_9570454868 6926121229 11527550475 11527520856 6926121234 2005330368 cluster_2005330282_2005330434_2005373528_2150497439_#3more 2005373513 2005373544 2005373588 cluster_1662331632_2005373394_2005373478_2005373506 1662331541 2016498858 1663277005 cluster_1674402751_1674402760 2016659948 2016663937 2016663952 2016663927 2016663945 2016663963 9399387341 cluster_2008941360_2008941375 2019142958 2019142651 2019142454 2019142413 2008941300 2019141667 2019142108 2019142385 2019141932 2019141841 2019429117 2019429055 cluster_1635133426_9871488862 2019429227 cluster_2019428881_2019429378 2019429389 cluster_2019429196_2019429313 2019428826 2019429166 2019428908 2019429339 2019429373 cluster_1635133542_2008941284_2008941341_2008941412 665075692 1635133482 665075691 cluster_2609397984_6508698265 2609397983 2431626429 2431626418 2431626417 2431626416 2431626415 2431626414 cluster_2431626413_5954049516 cluster_6468998126_6468998127 11505426277 11359571494 2431626410 6469136343 2431626408 10982366408 cluster_2431626402_5485045968 10959242412 10959242414 5485045973 cluster_2491887730_2491887731 10081539576" /><vehicle id="bus_18" type="bus" route="route_18" depart="0" /><route id="route_19" edges="6261661840 6261661843 cluster_2005330373_9570454867_9570454868 6926121229 11527550475 11527520856 6926121234 2005330368 2005330419 2005330382 2005330241 2005330415 2005330234 2005330416 2005330333 2005330218 cluster_1305696837_9570454866 cluster_2005330418_664440284_9800473181_9800473182 10917469640 10917469648 cluster_2015913208_2207611956_2207611957_6465007532 6464123621 2016649764 2016649708 9118370231 9165529684 9118370233 cluster_2016649734_9118370232 2016649717 2016649739 2016649743 2016649731 2016649740 cluster_2016649751_2016649769 2016649767 2016386594 cluster_2016386599_2016386606 2016657731 cluster_2008941469_2016994052 2016386598 cluster_11207103477_2016385182 2016508086 2016508169 2016385169 cluster_2016385178_2016386603 cluster_2016385175_2016385177 2016508136 cluster_2016377389_2016508133 cluster_2016377392_2016994008 cluster_2016994156_2017107536 2017107658 2017118492 2017704182 2017107396 2017704150 cluster_2017107965_2017704197 2017107837 2019031169 2017107478 2017107530 cluster_2017107766_2019051365 2017118390 2019051481 cluster_2017118454_2018209263 2017118401 2019071483 2018223507 2018223529 2017107552 2019071292 2017164795 2019071659 cluster_2017164685_2019071801 2017107939 11207169316 11207279146 cluster_2017164805_2019071808 2017107544 2017164782 2019071353 2019071611 cluster_2017107649_3320429187 12125906205 3320429182 6464205977 2516453108 6464205973 2516453097 10982352038 2516453080 10948510463 665075278 10982187659 cluster_10982358391_2516453068 6508733650 cluster_10982358390_2516453060 cluster_10982358389_2431622949 cluster_10982358388_2516453039 6508733658 cluster_10279782933_10683492285_10982352077_665075274 cluster_10683492287_665075276" /><vehicle id="bus_19" type="bus" route="route_19" depart="0" /><route id="route_20" edges="6261661840 6261661843 cluster_2005330373_9570454867_9570454868 6926121229 11527550475 11527520856 6926121234 2005330368 2005330419 2005330382 2005330241 2005330415 2005330234 2005330416 2005330333 2005330218 cluster_1305696837_9570454866 cluster_2005330418_664440284_9800473181_9800473182 10917469640 10917469648 cluster_2015913208_2207611956_2207611957_6465007532 6464123621 2016649764 2016649708 9118370231 9165529684 9118370233 cluster_2016649734_9118370232 2016649717 2016649739 2016649743 2016649731 2016649740 cluster_2016649751_2016649769 2016649767 2016386594 cluster_2016386599_2016386606 2016657731 cluster_2008941469_2016994052 2016386598 cluster_11207103477_2016385182 2016508086 2016508169 2016385169 cluster_2016385178_2016386603 cluster_2016385175_2016385177 2016508136 cluster_2016377389_2016508133 cluster_2016377392_2016994008 cluster_2016994156_2017107536 2017107658 2017118492 2017704182 2017107396 2017704150 cluster_2017107965_2017704197 2017107837 2019031169 2017107478 2017107530 cluster_2017107766_2019051365 2017118390 2019051481 cluster_2017118454_2018209263 2017118401 2019071483 2018223507 2018223529 2017107552 2019071292 2017164795 2019071659 cluster_2017164685_2019071801 2017107939 11207169316 11207279146 cluster_2017164805_2019071808 2017107544 2017164782 2019071353 2019071611 cluster_2017107649_3320429187 12125906205 3320429182 6464205977 2516453108 6464205973 2516453097 10982352038 2516453080 10948510463 665075278 10982187659 cluster_10982358391_2516453068 6508733650 cluster_10982358390_2516453060 cluster_10982358389_2431622949 cluster_10982358388_2516453039 6508733658 cluster_10279782933_10683492285_10982352077_665075274 cluster_10683492287_665075276 2431622948" /><vehicle id="bus_20" type="bus" route="route_20" depart="0" /><route id="route_21" edges="6261661840 6261661843 cluster_2005330373_9570454867_9570454868 6926121229 11527550475 11527520856 6926121234 2005330368 cluster_2005330282_2005330434_2005373528_2150497439_#3more 2005373513 2005373544 2005373588 cluster_1662331632_2005373394_2005373478_2005373506 1662331541 2016498858 1663277005 cluster_1674402751_1674402760 2016659948 2016663937 2016663952 2016663927 2016663945 2016663963 9399387341 cluster_2008941360_2008941375 1674408722 cluster_2019091800_2019091802 2016752439 2016750403 2019091751 2016746971 2016746956 cluster_2016746848_2019454426 1674408750 cluster_2016752393_2019454272 2019454911 2019454388 2019454487 cluster_1674408775_2019454133 2016752848 cluster_2016752858_2016764620 1674408781 1673489679 1673489681 1664524186 1721429306 2016769924 1705461379 1706090563 1673435220 1673435222 1663989284 2032511305 1663989241 1663989239 2032511232 1664545438 1663989213 1673636032 1664545436 2024735962 2024735955 9433299079 2024735934 2024735944 2024735913 2024735921 2024735897 2024735890 2024735927 2024735928 11127400552 2024735888 cluster_1684560512_2176570095_2176570119_2176570170 6469857580 6469857579 1684399956 1684336113 1742495420 1664472105 cluster_1664472042_2176570121 cluster_5428015572_5428015573 1664471983 1664471958 11184861711 cluster_11184844522_1664471946_1664471950 9407485653 cluster_1708037975_1708037976_2039926703_9407039363 11484519322 11185030157 2039926716 2039926719 2039926669 2039943055 2039943043 2039943050 2039943041 1702511541 11184908835" /><vehicle id="bus_21" type="bus" route="route_21" depart="0" /><route id="route_22" edges="6261661840 6261661843 cluster_2005330373_9570454867_9570454868 6926121229 11527550475 11527520856 6926121234 2005330368 cluster_2005330282_2005330434_2005373528_2150497439_#3more 2005373513 2005373544 2005373588 cluster_1662331632_2005373394_2005373478_2005373506 1662331541 2016498858 1663277005 cluster_1674402751_1674402760 2016659948 2016663937 2016663952 2016663927 2016663945 2016663963 9399387341 cluster_2008941360_2008941375 1674408722 cluster_2019091800_2019091802 2016752439 2016750403 2019091751 2016746971 2016746956 cluster_2016746848_2019454426 1674408750 cluster_2016752393_2019454272 2019454911 2019454388 2019454487 cluster_1674408775_2019454133 2016752848 cluster_2016752858_2016764620 1674408781 1673489679 1673489681 1664524186 1664524163 1673489677 2019462828 1673489641 1705461322 cluster_1673489613_2017324095_2017324103_2017324110 1704321436 1704321429 cluster_1705461315_6464038811 1705350193 1663121389 1663187241 1663187239" /><vehicle id="bus_22" type="bus" route="route_22" depart="0" /><route id="route_23" edges="6261661840 6261661843 cluster_2005330373_9570454867_9570454868 6926121229 11527550475 11527520856 6926121234 2005330368 cluster_2005330282_2005330434_2005373528_2150497439_#3more 2005373513 2005373544 2005373588 cluster_1662331632_2005373394_2005373478_2005373506 1662331541 2016498858 1663277005 cluster_1674402751_1674402760 2016659948 2016663937 2016663952 2016663927 2016663945 2016663963 9399387341 cluster_2008941360_2008941375 1674408722 cluster_2019091800_2019091802 2016752439 2016750403 2019091751 2016746971 2016746956 cluster_2016746848_2019454426 1674408750 cluster_2016752393_2019454272 2019454911 2019454388 2019454487 cluster_1674408775_2019454133 2016752848 cluster_2016752858_2016764620 1674408781 1673489679 1673489681 1664524186 1664524163 1673489677 2019462828 1673489641 1705461322 cluster_1673489613_2017324095_2017324103_2017324110 1704321436 1704321429 cluster_1705461315_6464038811 1705350193 1663121389 1663187241 1663187239 1673489562 1673489558 1663187155 1663121372" /><vehicle id="bus_23" type="bus" route="route_23" depart="0" /><route id="route_24" edges="6261661840 cluster_1289514857_2207612003_2207612005 cluster_11395908170_1305696727_2005340097_2150497438 290731701 1662366052 1662366054 cluster_2005449387_2005450398 1662379709 2008741462 cluster_2455116018_4462465493 10108699541 10108699543" /><vehicle id="bus_24" type="bus" route="route_24" depart="0" /><route id="route_25" edges="6261661840 cluster_1289514857_2207612003_2207612005 cluster_11395908170_1305696727_2005340097_2