<?xml version="1.0" encoding="UTF-8"?>

<!-- generated on 2024-09-25 19:26:06.440457 by osmWebWizard.py v1_20_0+0002-343658e7c64
<configuration>
    <net-file value="D:\SW\SUMO\tools\2024-09-25-19-22-37\osm.net.xml.gz"/>
    <output-trip-file value="D:\SW\SUMO\tools\2024-09-25-19-22-37\osm.bus.trips.xml"/>
    <route-file value="D:\SW\SUMO\tools\2024-09-25-19-22-37\osm.bus.rou.xml"/>
    <prefix value="bus"/>
    <trip-attributes value="departLane=&quot;best&quot;"/>
    <fringe-start-attributes value="departSpeed=&quot;max&quot;"/>
    <vehicle-class value="bus"/>
    <fringe-factor value="2"/>
    <vclass value="bus"/>
    <via-edge-types value="highway.motorway,highway.motorway_link,highway.trunk_link,highway.primary_link,highway.secondary_link,highway.tertiary_link"/>
    <min-distance value="600.0"/>
    <min-distance.fringe value="10.0"/>
    <remove-loops value="True"/>
    <validate value="True"/>
    <insertion-density value="8.0"/>
</configuration>
-->

<!-- generated on 2024-09-25 19:25:08 by Eclipse SUMO duarouter Version 1.20.0
<configuration xmlns:xsi="http://www.w3.org/2001/XMLSchema-instance" xsi:noNamespaceSchemaLocation="http://sumo.dlr.de/xsd/duarouterConfiguration.xsd">

    <input>
        <net-file value="D:\SW\SUMO\tools\2024-09-25-19-22-37\osm.net.xml.gz"/>
        <route-files value="D:\SW\SUMO\tools\2024-09-25-19-22-37\osm.bus.trips.xml"/>
    </input>

    <output>
        <output-file value="D:\SW\SUMO\tools\2024-09-25-19-22-37\osm.bus.trips.xml.tmp"/>
        <alternatives-output value="NUL"/>
        <write-trips value="true"/>
    </output>

    <processing>
        <remove-loops value="true"/>
    </processing>

    <time>
        <begin value="0.0"/>
        <end value="3600.0"/>
    </time>

    <report>
        <no-warnings value="true"/>
        <ignore-errors value="true"/>
        <no-step-log value="true"/>
    </report>

</configuration>
-->

<routes xmlns:xsi="http://www.w3.org/2001/XMLSchema-instance" xsi:noNamespaceSchemaLocation="http://sumo.dlr.de/xsd/routes_file.xsd">
    <vType id="bus_bus" vClass="bus"/>
    <trip id="bus1" type="bus_bus" depart="0.54" departLane="best" from="-191053592#1" to="189931985#14"/>
    <trip id="bus2" type="bus_bus" depart="1.08" departLane="best" from="189921794#7" to="158014642#2"/>
    <trip id="bus3" type="bus_bus" depart="1.62" departLane="best" from="689560368#0" to="-1038148469#0"/>
    <trip id="bus4" type="bus_bus" depart="2.16" departLane="best" from="-189931947#3" to="1042819490"/>
    <trip id="bus5" type="bus_bus" depart="2.70" departLane="best" from="-1034808667#3" to="-162339447#0"/>
    <trip id="bus6" type="bus_bus" depart="3.24" departLane="best" from="156339386#0" to="115879826#2"/>
    <trip id="bus7" type="bus_bus" depart="3.77" departLane="best" from="-189931954#4" to="153554002#1"/>
    <trip id="bus8" type="bus_bus" depart="4.31" departLane="best" from="191115904#5" to="-1023126737"/>
    <trip id="bus9" type="bus_bus" depart="4.85" departLane="best" from="191079440#3" to="158308563"/>
    <trip id="bus10" type="bus_bus" depart="5.39" departLane="best" from="-193237115#0" to="156421310#7"/>
    <trip id="bus11" type="bus_bus" depart="5.93" departLane="best" from="51765915#22" to="-193114497"/>
    <trip id="bus12" type="bus_bus" depart="6.47" departLane="best" from="-1174941086" to="235060974#2"/>
    <trip id="bus13" type="bus_bus" depart="7.01" departLane="best" from="192076550" to="153815425#7"/>
    <trip id="bus14" type="bus_bus" depart="7.55" departLane="best" from="191084396#1" to="167026487#3"/>
    <trip id="bus15" type="bus_bus" depart="8.09" departLane="best" from="-1135052542#1" to="689554246#0"/>
    <trip id="bus16" type="bus_bus" depart="8.63" departLane="best" from="238277164#5" to="1173665890"/>
    <trip id="bus17" type="bus_bus" depart="9.17" departLane="best" from="191322116#0" to="154991874#0"/>
    <trip id="bus18" type="bus_bus" depart="9.71" departLane="best" from="-192969309#1" to="1237985199#1"/>
    <trip id="bus19" type="bus_bus" depart="10.24" departLane="best" from="158412866" to="-1040780761#0"/>
    <trip id="bus20" type="bus_bus" depart="10.78" departLane="best" from="-189932004#0" to="-191129885#8"/>
    <trip id="bus21" type="bus_bus" depart="11.32" departLane="best" from="113752057#5" to="190276990#0"/>
    <trip id="bus22" type="bus_bus" depart="11.86" departLane="best" from="156174205#0" to="-237621319#15"/>
    <trip id="bus23" type="bus_bus" depart="12.40" departLane="best" from="-237621330#4" to="-189923084#4"/>
    <trip id="bus24" type="bus_bus" depart="12.94" departLane="best" from="190875388#0" to="-264303435#7"/>
    <trip id="bus25" type="bus_bus" depart="13.48" departLane="best" from="-156322600#3" to="154887807#0"/>
    <trip id="bus26" type="bus_bus" depart="14.02" departLane="best" from="158140413#1" to="162340411#2"/>
    <trip id="bus27" type="bus_bus" depart="14.56" departLane="best" from="-158004709#4" to="238609512#6"/>
    <trip id="bus29" type="bus_bus" depart="15.64" departLane="best" from="1178519676" to="158140415#2"/>
    <trip id="bus30" type="bus_bus" depart="16.18" departLane="best" from="192072915" to="190321654#11"/>
    <trip id="bus31" type="bus_bus" depart="16.72" departLane="best" from="-189932011#1" to="-1039239549#1"/>
    <trip id="bus32" type="bus_bus" depart="17.25" departLane="best" from="192073503" to="-190876877#0"/>
    <trip id="bus33" type="bus_bus" depart="17.79" departLane="best" from="189924436#1" to="331480837"/>
    <trip id="bus34" type="bus_bus" depart="18.33" departLane="best" from="193237137#2" to="-192072923"/>
    <trip id="bus35" type="bus_bus" depart="18.87" departLane="best" from="238242012#2" to="1023266005"/>
    <trip id="bus36" type="bus_bus" depart="19.41" departLane="best" from="190598816" to="-190321649#8"/>
    <trip id="bus37" type="bus_bus" depart="19.95" departLane="best" from="1182675617#2" to="-190431693#2"/>
    <trip id="bus38" type="bus_bus" depart="20.49" departLane="best" from="1309531828" to="237520357#0"/>
    <trip id="bus39" type="bus_bus" depart="21.03" departLane="best" from="321648602#4" to="-189931951#2"/>
    <trip id="bus40" type="bus_bus" depart="21.57" departLane="best" from="804217579#0" to="-1057561776"/>
    <trip id="bus41" type="bus_bus" depart="22.11" departLane="best" from="-1173693662" to="-1040780768#1"/>
    <trip id="bus42" type="bus_bus" depart="22.65" departLane="best" from="-1233256693#0" to="156167064#3"/>
    <trip id="bus43" type="bus_bus" depart="23.19" departLane="best" from="190431695#1" to="689560374#2"/>
    <trip id="bus44" type="bus_bus" depart="23.72" departLane="best" from="1065798344" to="-238609525#11"/>
    <trip id="bus45" type="bus_bus" depart="24.26" departLane="best" from="803523369" to="1127247744#3"/>
    <trip id="bus46" type="bus_bus" depart="24.80" departLane="best" from="689149611#1" to="-192967359#1"/>
    <trip id="bus47" type="bus_bus" depart="25.34" departLane="best" from="-1023265999#0" to="159841030"/>
    <trip id="bus48" type="bus_bus" depart="25.88" departLane="best" from="158140391#0" to="1136761588#2"/>
    <trip id="bus49" type="bus_bus" depart="26.42" departLane="best" from="190793762" to="156309774"/>
    <trip id="bus50" type="bus_bus" depart="26.96" departLane="best" from="-1236888721" to="718369745#2"/>
    <trip id="bus51" type="bus_bus" depart="27.50" departLane="best" from="1023126747" to="-47690206#2"/>
    <trip id="bus52" type="bus_bus" depart="28.04" departLane="best" from="-193237132#8" to="-190431702"/>
    <trip id="bus53" type="bus_bus" depart="28.58" departLane="best" from="1041027500" to="-158320867#2"/>
    <trip id="bus54" type="bus_bus" depart="29.12" departLane="best" from="237743342#1" to="-193229895#0"/>
    <trip id="bus55" type="bus_bus" depart="29.66" departLane="best" from="-191319422#0" to="156308521#5"/>
    <trip id="bus56" type="bus_bus" depart="30.20" departLane="best" from="154887801#0" to="156419521#4"/>
    <trip id="bus57" type="bus_bus" depart="30.73" departLane="best" from="-190277019" to="1138319998#0"/>
    <trip id="bus58" type="bus_bus" depart="31.27" departLane="best" from="190321676#4" to="1127744315"/>
    <trip id="bus59" type="bus_bus" depart="31.81" departLane="best" from="-1019044740" to="192930091#7"/>
    <trip id="bus60" type="bus_bus" depart="32.35" departLane="best" from="-1023266098" to="-254609234#0"/>
    <trip id="bus61" type="bus_bus" depart="32.89" departLane="best" from="-193237148#1" to="-191359752#0"/>
    <trip id="bus62" type="bus_bus" depart="33.43" departLane="best" from="191558824" to="-1046723816"/>
    <trip id="bus63" type="bus_bus" depart="33.97" departLane="best" from="193237142" to="332199567#1"/>
    <trip id="bus64" type="bus_bus" depart="34.51" departLane="best" from="1160101793#9" to="1040192155#1"/>
    <trip id="bus65" type="bus_bus" depart="35.05" departLane="best" from="-112492225#13" to="-190276955#0"/>
    <trip id="bus66" type="bus_bus" depart="35.59" departLane="best" from="190279700" to="-156148005#2"/>
    <trip id="bus67" type="bus_bus" depart="36.13" departLane="best" from="1034808662" to="-1165580964#12"/>
    <trip id="bus68" type="bus_bus" depart="36.67" departLane="best" from="190793744#1" to="193237120#1"/>
    <trip id="bus69" type="bus_bus" depart="37.20" departLane="best" from="-689581108#0" to="-189924445#0"/>
    <trip id="bus70" type="bus_bus" depart="37.74" departLane="best" from="113752065#1" to="167026489#1"/>
    <trip id="bus71" type="bus_bus" depart="38.28" departLane="best" from="162339448#7" to="-191928005#8"/>
    <trip id="bus72" type="bus_bus" depart="38.82" departLane="best" from="-774655938#2" to="156340792#0"/>
    <trip id="bus73" type="bus_bus" depart="39.36" departLane="best" from="719301736" to="1116868314"/>
    <trip id="bus74" type="bus_bus" depart="39.90" departLane="best" from="-153553998" to="-189931992"/>
    <trip id="bus75" type="bus_bus" depart="40.44" departLane="best" from="193229471#0" to="153550634#0"/>
    <trip id="bus76" type="bus_bus" depart="40.98" departLane="best" from="-190276956#1" to="-189931954#2"/>
    <trip id="bus77" type="bus_bus" depart="41.52" departLane="best" from="1126943592#18" to="156168892#1"/>
    <trip id="bus78" type="bus_bus" depart="42.06" departLane="best" from="-189932010#7" to="-237621327#1"/>
    <trip id="bus79" type="bus_bus" depart="42.60" departLane="best" from="192966968#13" to="-1126943592#17"/>
    <trip id="bus80" type="bus_bus" depart="43.14" departLane="best" from="-190279698#3" to="158004709#3"/>
    <trip id="bus81" type="bus_bus" depart="43.68" departLane="best" from="-189931923#0" to="-156168874#3"/>
    <trip id="bus82" type="bus_bus" depart="44.21" departLane="best" from="264199465#3" to="1218173119"/>
    <trip id="bus83" type="bus_bus" depart="44.75" departLane="best" from="1032031706#2" to="190362381#1"/>
    <trip id="bus84" type="bus_bus" depart="45.29" departLane="best" from="-191093878#1" to="-159616708#4"/>
    <trip id="bus85" type="bus_bus" depart="45.83" departLane="best" from="-1179955121" to="-693357207#5"/>
    <trip id="bus86" type="bus_bus" depart="46.37" departLane="best" from="-689601517#1" to="1023266106"/>
    <trip id="bus87" type="bus_bus" depart="46.91" departLane="best" from="162339459#3" to="158014386#1"/>
    <trip id="bus88" type="bus_bus" depart="47.45" departLane="best" from="697138334#2" to="1180636286"/>
    <trip id="bus89" type="bus_bus" depart="47.99" departLane="best" from="-332199552#1" to="-193237112"/>
    <trip id="bus90" type="bus_bus" depart="48.53" departLane="best" from="-192969309#1" to="-190321663#1"/>
    <trip id="bus91" type="bus_bus" depart="49.07" departLane="best" from="-159370055#4" to="-1022901419#0"/>
    <trip id="bus92" type="bus_bus" depart="49.61" departLane="best" from="-689560368#0" to="191093878#1"/>
    <trip id="bus93" type="bus_bus" depart="50.15" departLane="best" from="-190321676#9" to="1032036238#1"/>
    <trip id="bus94" type="bus_bus" depart="50.68" departLane="best" from="804183083" to="192969309#0"/>
    <trip id="bus95" type="bus_bus" depart="51.22" departLane="best" from="-995150435#0" to="-191558825#0"/>
    <trip id="bus96" type="bus_bus" depart="51.76" departLane="best" from="689066201" to="-244315213#2"/>
    <trip id="bus97" type="bus_bus" depart="52.30" departLane="best" from="-192076562#4" to="-158028071#0"/>
    <trip id="bus98" type="bus_bus" depart="52.84" departLane="best" from="-1040192154#0" to="-189931920#7"/>
    <trip id="bus99" type="bus_bus" depart="53.38" departLane="best" from="-331480838#1" to="1057559797#0"/>
    <trip id="bus100" type="bus_bus" depart="53.92" departLane="best" from="-238287190#3" to="697140158#1"/>
    <trip id="bus101" type="bus_bus" depart="54.46" departLane="best" from="-190793745#1" to="190362375#5"/>
    <trip id="bus102" type="bus_bus" depart="55.00" departLane="best" from="1023265958" to="689581108#0"/>
    <trip id="bus103" type="bus_bus" depart="55.54" departLane="best" from="51765915#3" to="189932007#14"/>
    <trip id="bus104" type="bus_bus" depart="56.08" departLane="best" from="-1178016221" to="-159802682#0"/>
    <trip id="bus105" type="bus_bus" depart="56.62" departLane="best" from="-156419529#0" to="-191149361#0"/>
    <trip id="bus106" type="bus_bus" depart="57.16" departLane="best" from="-661661666#7" to="1240920342"/>
    <trip id="bus107" type="bus_bus" depart="57.69" departLane="best" from="1154162816" to="-189931968#3"/>
    <trip id="bus108" type="bus_bus" depart="58.23" departLane="best" from="-1042862091#2" to="1309531806#2"/>
    <trip id="bus109" type="bus_bus" depart="58.77" departLane="best" from="1041332604#1" to="192724608#3"/>
    <trip id="bus110" type="bus_bus" depart="59.31" departLane="best" from="-156421317" to="52246211#4"/>
    <trip id="bus111" type="bus_bus" depart="59.85" departLane="best" from="-1138309823" to="158640637"/>
    <trip id="bus112" type="bus_bus" depart="60.39" departLane="best" from="153690576" to="158014390#5"/>
    <trip id="bus113" type="bus_bus" depart="60.93" departLane="best" from="-190277019" to="-153550624#5"/>
    <trip id="bus114" type="bus_bus" depart="61.47" departLane="best" from="207405242#2" to="-190321649#37"/>
    <trip id="bus115" type="bus_bus" depart="62.01" departLane="best" from="153690574#0" to="154991878#2"/>
    <trip id="bus116" type="bus_bus" depart="62.55" departLane="best" from="-689135582#0" to="1309331478"/>
    <trip id="bus117" type="bus_bus" depart="63.09" departLane="best" from="1126843683#2" to="264199463#1"/>
    <trip id="bus118" type="bus_bus" depart="63.63" departLane="best" from="-174252536#1" to="159370050#3"/>
    <trip id="bus119" type="bus_bus" depart="64.16" departLane="best" from="190279704" to="264303434#0"/>
    <trip id="bus120" type="bus_bus" depart="64.70" departLane="best" from="158013562#14" to="-191322100"/>
    <trip id="bus121" type="bus_bus" depart="65.24" departLane="best" from="-192073510#2" to="-189931997#6"/>
    <trip id="bus122" type="bus_bus" depart="65.78" departLane="best" from="112697458#14" to="1023266000"/>
    <trip id="bus123" type="bus_bus" depart="66.32" departLane="best" from="986447753#0" to="803523369"/>
    <trip id="bus124" type="bus_bus" depart="66.86" departLane="best" from="-112697458#5" to="-189931918#4"/>
    <trip id="bus125" type="bus_bus" depart="67.40" departLane="best" from="-190793745#1" to="244315215#2"/>
    <trip id="bus126" type="bus_bus" depart="67.94" departLane="best" from="1227134712#4" to="-193237149#6"/>
    <trip id="bus127" type="bus_bus" depart="68.48" departLane="best" from="-237621328#1" to="-156421321"/>
    <trip id="bus128" type="bus_bus" depart="69.02" departLane="best" from="191545879#0" to="158410391#0"/>
    <trip id="bus129" type="bus_bus" depart="69.56" departLane="best" from="154887829#2" to="718369746#7"/>
    <trip id="bus130" type="bus_bus" depart="70.10" departLane="best" from="157920901#5" to="310458368#2"/>
    <trip id="bus131" type="bus_bus" depart="70.64" departLane="best" from="-156168894#0" to="1270795177#2"/>
    <trip id="bus132" type="bus_bus" depart="71.17" departLane="best" from="-191033301#1" to="153948912#9"/>
    <trip id="bus133" type="bus_bus" depart="71.71" departLane="best" from="-159616708#4" to="174252532#3"/>
    <trip id="bus134" type="bus_bus" depart="72.25" departLane="best" from="156173937#3" to="-190598808"/>
    <trip id="bus135" type="bus_bus" depart="72.79" departLane="best" from="-1040424488#1" to="237621327#0"/>
    <trip id="bus136" type="bus_bus" depart="73.33" departLane="best" from="192074453#0" to="1174933517"/>
    <trip id="bus137" type="bus_bus" depart="73.87" departLane="best" from="689601517#1" to="191079436"/>
    <trip id="bus138" type="bus_bus" depart="74.41" departLane="best" from="-1022901434" to="190292786#1"/>
    <trip id="bus139" type="bus_bus" depart="74.95" departLane="best" from="153744487#1" to="-190431688"/>
    <trip id="bus140" type="bus_bus" depart="75.49" departLane="best" from="189931920#8" to="1173253099#1"/>
    <trip id="bus141" type="bus_bus" depart="76.03" departLane="best" from="689673449#2" to="1023265976"/>
    <trip id="bus142" type="bus_bus" depart="76.57" departLane="best" from="-1127744311#1" to="193661468#5"/>
    <trip id="bus143" type="bus_bus" depart="77.11" departLane="best" from="237621321#1" to="115880793#1"/>
    <trip id="bus144" type="bus_bus" depart="77.64" departLane="best" from="191546399#1" to="1307640950#2"/>
    <trip id="bus145" type="bus_bus" depart="78.18" departLane="best" from="-156322600#0" to="-156147129#0"/>
    <trip id="bus146" type="bus_bus" depart="78.72" departLane="best" from="-191558827" to="-237521320#15"/>
    <trip id="bus147" type="bus_bus" depart="79.26" departLane="best" from="-190876868" to="-192967359#0"/>
    <trip id="bus148" type="bus_bus" depart="79.80" departLane="best" from="-237521320#1" to="-189923093#3"/>
    <trip id="bus149" type="bus_bus" depart="80.34" departLane="best" from="-190321676#5" to="-120530545#1"/>
    <trip id="bus150" type="bus_bus" depart="80.88" departLane="best" from="-332199572#7" to="-154992380#3"/>
    <trip id="bus151" type="bus_bus" depart="81.42" departLane="best" from="-156419527#1" to="254678149#1"/>
    <trip id="bus152" type="bus_bus" depart="81.96" departLane="best" from="192969655#7" to="689630252#1"/>
    <trip id="bus153" type="bus_bus" depart="82.50" departLane="best" from="-191118891#1" to="193309442#5"/>
    <trip id="bus155" type="bus_bus" depart="83.58" departLane="best" from="-192969655#13" to="254678150#8"/>
    <trip id="bus156" type="bus_bus" depart="84.12" departLane="best" from="191053288#3" to="192969655#2"/>
    <trip id="bus157" type="bus_bus" depart="84.65" departLane="best" from="-191118891#1" to="-190875386"/>
    <trip id="bus159" type="bus_bus" depart="85.73" departLane="best" from="-193237117#1" to="192966679"/>
    <trip id="bus160" type="bus_bus" depart="86.27" departLane="best" from="-189931981#2" to="191129877#27"/>
    <trip id="bus161" type="bus_bus" depart="86.81" departLane="best" from="-1023266021" to="-191546248"/>
    <trip id="bus162" type="bus_bus" depart="87.35" departLane="best" from="-1023290444#2" to="-159838762"/>
    <trip id="bus163" type="bus_bus" depart="87.89" departLane="best" from="562984694#4" to="-191093882#7"/>
    <trip id="bus164" type="bus_bus" depart="88.43" departLane="best" from="156309782#0" to="-325486000#0"/>
    <trip id="bus165" type="bus_bus" depart="88.97" departLane="best" from="-693317927#2" to="1136404738"/>
    <trip id="bus166" type="bus_bus" depart="89.51" departLane="best" from="-317396879#1" to="1270795177#1"/>
    <trip id="bus167" type="bus_bus" depart="90.05" departLane="best" from="-689135581#0" to="-158320867#1"/>
    <trip id="bus168" type="bus_bus" depart="90.59" departLane="best" from="-52246256#6" to="-190793747#1"/>
    <trip id="bus169" type="bus_bus" depart="91.12" departLane="best" from="-1226443320#0" to="-718369744#1"/>
    <trip id="bus170" type="bus_bus" depart="91.66" departLane="best" from="162339450#2" to="-192072912#0"/>
    <trip id="bus171" type="bus_bus" depart="92.20" departLane="best" from="-153948923#1" to="1065795655#1"/>
    <trip id="bus173" type="bus_bus" depart="93.28" departLane="best" from="-190362373#1" to="158640638"/>
    <trip id="bus175" type="bus_bus" depart="94.36" departLane="best" from="113752054#3" to="159803038#0"/>
    <trip id="bus176" type="bus_bus" depart="94.90" departLane="best" from="-189931924#3" to="158004734#1"/>
    <trip id="bus177" type="bus_bus" depart="95.44" departLane="best" from="-237521337#1" to="-112492225#7"/>
    <trip id="bus178" type="bus_bus" depart="95.98" departLane="best" from="157970119#7" to="-192969311#4"/>
    <trip id="bus179" type="bus_bus" depart="96.52" departLane="best" from="-192072913" to="-192076560"/>
    <trip id="bus180" type="bus_bus" depart="97.06" departLane="best" from="159803038#0" to="191322114#1"/>
    <trip id="bus181" type="bus_bus" depart="97.60" departLane="best" from="191559107#1" to="-47690206#1"/>
    <trip id="bus182" type="bus_bus" depart="98.13" departLane="best" from="332199551#0" to="191136628#2"/>
    <trip id="bus183" type="bus_bus" depart="98.67" departLane="best" from="-156146221#3" to="-689179722#2"/>
    <trip id="bus184" type="bus_bus" depart="99.21" departLane="best" from="321648599" to="158016217#1"/>
    <trip id="bus185" type="bus_bus" depart="99.75" departLane="best" from="-237621320#10" to="154905766#1"/>
    <trip id="bus187" type="bus_bus" depart="100.83" departLane="best" from="-1019044733" to="-191129877#12"/>
    <trip id="bus188" type="bus_bus" depart="101.37" departLane="best" from="-693318118#1" to="-1252286298#4"/>
    <trip id="bus190" type="bus_bus" depart="102.45" departLane="best" from="1032036239#2" to="237621318#2"/>
    <trip id="bus191" type="bus_bus" depart="102.99" departLane="best" from="190875513" to="158140403#1"/>
    <trip id="bus193" type="bus_bus" depart="104.07" departLane="best" from="156168898#2" to="-193114152#2"/>
    <trip id="bus194" type="bus_bus" depart="104.60" departLane="best" from="191129885#8" to="189931991#2"/>
    <trip id="bus195" type="bus_bus" depart="105.14" departLane="best" from="158013562#8" to="-189931991#2"/>
    <trip id="bus197" type="bus_bus" depart="106.22" departLane="best" from="190321649#15" to="1034808667#10"/>
    <trip id="bus198" type="bus_bus" depart="106.76" departLane="best" from="192446085#1" to="-112697458#18"/>
    <trip id="bus199" type="bus_bus" depart="107.30" departLane="best" from="52246256#7" to="156168878#0"/>
    <trip id="bus200" type="bus_bus" depart="107.84" departLane="best" from="-159841040#0" to="-158308540#2"/>
    <trip id="bus202" type="bus_bus" depart="108.92" departLane="best" from="-192252527" to="689630253#6"/>
    <trip id="bus203" type="bus_bus" depart="109.46" departLane="best" from="-158308548#0" to="52097226#12"/>
    <trip id="bus204" type="bus_bus" depart="110.00" departLane="best" from="1117798679#0" to="-1040805568"/>
    <trip id="bus205" type="bus_bus" depart="110.54" departLane="best" from="-190321676#12" to="192076562#4"/>
    <trip id="bus206" type="bus_bus" depart="111.08" departLane="best" from="-1023265976" to="-191052564#4"/>
    <trip id="bus207" type="bus_bus" depart="111.61" departLane="best" from="157973284#3" to="718414131#3"/>
    <trip id="bus208" type="bus_bus" depart="112.15" departLane="best" from="153690581#1" to="350552548#3"/>
    <trip id="bus209" type="bus_bus" depart="112.69" departLane="best" from="209297293" to="154887840#1"/>
    <trip id="bus210" type="bus_bus" depart="113.23" departLane="best" from="159802683#4" to="1042811128#0"/>
    <trip id="bus212" type="bus_bus" depart="114.31" departLane="best" from="237429746#6" to="189931939#1"/>
    <trip id="bus213" type="bus_bus" depart="114.85" departLane="best" from="-1034808658" to="-190383397#16"/>
    <trip id="bus214" type="bus_bus" depart="115.39" departLane="best" from="190321654#2" to="156296852#4"/>
    <trip id="bus215" type="bus_bus" depart="115.93" departLane="best" from="190279700" to="-112492225#7"/>
    <trip id="bus216" type="bus_bus" depart="116.47" departLane="best" from="-156164745#4" to="-191053590#6"/>
    <trip id="bus217" type="bus_bus" depart="117.01" departLane="best" from="-1135052542#1" to="-191123084#0"/>
    <trip id="bus218" type="bus_bus" depart="117.55" departLane="best" from="191009055#0" to="192076561"/>
    <trip id="bus219" type="bus_bus" depart="118.08" departLane="best" from="-1139114025" to="-156174414"/>
    <trip id="bus220" type="bus_bus" depart="118.62" departLane="best" from="-190276970#2" to="158199998#4"/>
    <trip id="bus221" type="bus_bus" depart="119.16" departLane="best" from="-158414136#0" to="1065798357#1"/>
    <trip id="bus222" type="bus_bus" depart="119.70" departLane="best" from="-449440244#0" to="1154690447"/>
    <trip id="bus223" type="bus_bus" depart="120.24" departLane="best" from="-543842233#1" to="-189921787#1"/>
    <trip id="bus224" type="bus_bus" depart="120.78" departLane="best" from="689179720#0" to="237621324"/>
    <trip id="bus225" type="bus_bus" depart="121.32" departLane="best" from="-1309337601" to="158308042#1"/>
    <trip id="bus226" type="bus_bus" depart="121.86" departLane="best" from="192965781#0" to="190279700"/>
    <trip id="bus227" type="bus_bus" depart="122.40" departLane="best" from="194273946" to="189932001#25"/>
    <trip id="bus228" type="bus_bus" depart="122.94" departLane="best" from="192927618#2" to="473839161#3"/>
    <trip id="bus229" type="bus_bus" depart="123.48" departLane="best" from="-689135581#0" to="189931962#5"/>
    <trip id="bus230" type="bus_bus" depart="124.02" departLane="best" from="-1160101793#13" to="153815424"/>
    <trip id="bus231" type="bus_bus" depart="124.55" departLane="best" from="189931954#5" to="-189931951#4"/>
    <trip id="bus232" type="bus_bus" depart="125.09" departLane="best" from="-718414129#0" to="1034823351#4"/>
    <trip id="bus233" type="bus_bus" depart="125.63" departLane="best" from="193114345#0" to="-158028069#0"/>
    <trip id="bus234" type="bus_bus" depart="126.17" departLane="best" from="-332199563#0" to="158004924"/>
    <trip id="bus235" type="bus_bus" depart="126.71" departLane="best" from="-1023266109" to="156147129#2"/>
    <trip id="bus236" type="bus_bus" depart="127.25" departLane="best" from="155004892#1" to="1034808668#1"/>
    <trip id="bus237" type="bus_bus" depart="127.79" departLane="best" from="-263539837#2" to="1196027695#2"/>
    <trip id="bus238" type="bus_bus" depart="128.33" departLane="best" from="1034808670" to="-156311714#1"/>
    <trip id="bus239" type="bus_bus" depart="128.87" departLane="best" from="-156168899#0" to="1023266039#1"/>
    <trip id="bus240" type="bus_bus" depart="129.41" departLane="best" from="-1040811360" to="238609512#1"/>
    <trip id="bus241" type="bus_bus" depart="129.95" departLane="best" from="-189924441#2" to="192966156"/>
    <trip id="bus242" type="bus_bus" depart="130.49" departLane="best" from="190277003#1" to="238609512#2"/>
    <trip id="bus243" type="bus_bus" depart="131.03" departLane="best" from="189931997#3" to="-191363014#1"/>
    <trip id="bus244" type="bus_bus" depart="131.56" departLane="best" from="-190327977#1" to="115610216#1"/>
    <trip id="bus245" type="bus_bus" depart="132.10" departLane="best" from="-1023266097" to="1138319998#1"/>
    <trip id="bus247" type="bus_bus" depart="133.18" departLane="best" from="156340790#1" to="190327977#5"/>
    <trip id="bus248" type="bus_bus" depart="133.72" departLane="best" from="156419504" to="189932004#3"/>
    <trip id="bus249" type="bus_bus" depart="134.26" departLane="best" from="350552548#0" to="-162339448#14"/>
    <trip id="bus250" type="bus_bus" depart="134.80" departLane="best" from="1023266110#3" to="156419517"/>
    <trip id="bus251" type="bus_bus" depart="135.34" departLane="best" from="154992380#0" to="158004710"/>
    <trip id="bus252" type="bus_bus" depart="135.88" departLane="best" from="1196027692#2" to="189931942#5"/>
    <trip id="bus253" type="bus_bus" depart="136.42" departLane="best" from="-158320863#6" to="190279708#8"/>
    <trip id="bus254" type="bus_bus" depart="136.96" departLane="best" from="189931962#6" to="-1252286298#6"/>
    <trip id="bus255" type="bus_bus" depart="137.50" departLane="best" from="191129903#0" to="562931989#1"/>
    <trip id="bus256" type="bus_bus" depart="138.03" departLane="best" from="1226439301#4" to="1034808648"/>
    <trip id="bus257" type="bus_bus" depart="138.57" departLane="best" from="192066934#0" to="158016217#1"/>
    <trip id="bus258" type="bus_bus" depart="139.11" departLane="best" from="52097226#3" to="264303438"/>
    <trip id="bus259" type="bus_bus" depart="139.65" departLane="best" from="-159290204#2" to="-1130844565#1"/>
    <trip id="bus260" type="bus_bus" depart="140.19" departLane="best" from="1126855581" to="156167064#0"/>
    <trip id="bus261" type="bus_bus" depart="140.73" departLane="best" from="-1200776737" to="190304147#12"/>
    <trip id="bus262" type="bus_bus" depart="141.27" departLane="best" from="192708241" to="153802908#3"/>
    <trip id="bus263" type="bus_bus" depart="141.81" departLane="best" from="-153553998" to="697138332"/>
    <trip id="bus264" type="bus_bus" depart="142.35" departLane="best" from="-190327984#4" to="-193237144#1"/>
    <trip id="bus265" type="bus_bus" depart="142.89" departLane="best" from="-693292474#0" to="-237621333#1"/>
    <trip id="bus266" type="bus_bus" depart="143.43" departLane="best" from="-1042851689" to="-193237120#2"/>
    <trip id="bus267" type="bus_bus" depart="143.97" departLane="best" from="192446062#0" to="191130629#3"/>
    <trip id="bus268" type="bus_bus" depart="144.51" departLane="best" from="-1214963597" to="1182675617#3"/>
    <trip id="bus269" type="bus_bus" depart="145.04" departLane="best" from="156174204#2" to="191322103#1"/>