<?xml version="1.0" encoding="UTF-8"?>

<!-- generated on 2024-09-25 19:32:33.953334 by osmWebWizard.py v1_20_0+0002-343658e7c64
<configuration>
    <net-file value="D:\SW\SUMO\tools\2024-09-25-19-22-37\osm.net.xml.gz"/>
    <output-trip-file value="D:\SW\SUMO\tools\2024-09-25-19-22-37\osm.passenger.trips.xml"/>
    <route-file value="D:\SW\SUMO\tools\2024-09-25-19-22-37\osm.passenger.rou.xml"/>
    <prefix value="veh"/>
    <trip-attributes value="departLane=&quot;best&quot;"/>
    <fringe-start-attributes value="departSpeed=&quot;max&quot;"/>
    <vehicle-class value="passenger"/>
    <lanes value="True"/>
    <fringe-factor value="5"/>
    <allow-fringe.min-length value="1000.0"/>
    <via-edge-types value="highway.motorway,highway.motorway_link,highway.trunk_link,highway.primary_link,highway.secondary_link,highway.tertiary_link"/>
    <min-distance value="300.0"/>
    <min-distance.fringe value="10.0"/>
    <remove-loops value="True"/>
    <validate value="True"/>
    <insertion-density value="20.0"/>
</configuration>
-->

<!-- generated on 2024-09-25 19:30:46 by Eclipse SUMO duarouter Version 1.20.0
<configuration xmlns:xsi="http://www.w3.org/2001/XMLSchema-instance" xsi:noNamespaceSchemaLocation="http://sumo.dlr.de/xsd/duarouterConfiguration.xsd">

    <input>
        <net-file value="D:\SW\SUMO\tools\2024-09-25-19-22-37\osm.net.xml.gz"/>
        <route-files value="D:\SW\SUMO\tools\2024-09-25-19-22-37\osm.passenger.trips.xml"/>
    </input>

    <output>
        <output-file value="D:\SW\SUMO\tools\2024-09-25-19-22-37\osm.passenger.trips.xml.tmp"/>
        <alternatives-output value="NUL"/>
        <write-trips value="true"/>
    </output>

    <processing>
        <remove-loops value="true"/>
    </processing>

    <time>
        <begin value="0.0"/>
        <end value="3600.0"/>
    </time>

    <report>
        <no-warnings value="true"/>
        <ignore-errors value="true"/>
        <no-step-log value="true"/>
    </report>

</configuration>
-->

<routes xmlns:xsi="http://www.w3.org/2001/XMLSchema-instance" xsi:noNamespaceSchemaLocation="http://sumo.dlr.de/xsd/routes_file.xsd">
    <vType id="veh_passenger" vClass="passenger"/>
    <trip id="veh0" type="veh_passenger" depart="0.00" departLane="best" from="-156322591" to="1034808667#0"/>
    <trip id="veh1" type="veh_passenger" depart="0.22" departLane="best" from="-191129891#0" to="-190277020#2"/>
    <trip id="veh2" type="veh_passenger" depart="0.43" departLane="best" from="189931920#6" to="158140405#1"/>
    <trip id="veh3" type="veh_passenger" depart="0.65" departLane="best" from="237521320#16" to="-1174212313#2"/>
    <trip id="veh4" type="veh_passenger" depart="0.86" departLane="best" from="995148514" to="-1039239546#0"/>
    <trip id="veh5" type="veh_passenger" depart="1.08" departLane="best" from="-190276956#8" to="-112697458#3"/>
    <trip id="veh6" type="veh_passenger" depart="1.29" departLane="best" from="-1034816018" to="-189923084#6"/>
    <trip id="veh7" type="veh_passenger" depart="1.51" departLane="best" from="156421311#0" to="1196027692#2"/>
    <trip id="veh8" type="veh_passenger" depart="1.73" departLane="best" from="190276977#3" to="153802908#1"/>
    <trip id="veh9" type="veh_passenger" depart="1.94" departLane="best" from="191129877#4" to="-1023126741"/>
    <trip id="veh10" type="veh_passenger" depart="2.16" departLane="best" from="191118911#4" to="-158412881#0"/>
    <trip id="veh11" type="veh_passenger" depart="2.37" departLane="best" from="-236881358" to="-158004715"/>
    <trip id="veh12" type="veh_passenger" depart="2.59" departLane="best" from="1032031706#1" to="-204165728#5"/>
    <trip id="veh13" type="veh_passenger" depart="2.80" departLane="best" from="-1180368708#0" to="-1200776737"/>
    <trip id="veh14" type="veh_passenger" depart="3.02" departLane="best" from="192965748#4" to="154905338#5"/>
    <trip id="veh15" type="veh_passenger" depart="3.24" departLane="best" from="191123096#1" to="189921794#2"/>
    <trip id="veh16" type="veh_passenger" depart="3.45" departLane="best" from="-1174941847" to="-689179721#0"/>
    <trip id="veh17" type="veh_passenger" depart="3.67" departLane="best" from="-321648601#0" to="1217043402#3"/>
    <trip id="veh18" type="veh_passenger" depart="3.88" departLane="best" from="191912061#0" to="156167064#2"/>
    <trip id="veh19" type="veh_passenger" depart="4.10" departLane="best" from="193237114#2" to="153690570#5"/>
    <trip id="veh20" type="veh_passenger" depart="4.31" departLane="best" from="158645675#9" to="-1040801303#13"/>
    <trip id="veh21" type="veh_passenger" depart="4.53" departLane="best" from="-190279711#8" to="-191546248"/>
    <trip id="veh22" type="veh_passenger" depart="4.75" departLane="best" from="-115879826#0" to="190321649#28"/>
    <trip id="veh23" type="veh_passenger" depart="4.96" departLane="best" from="1218162543" to="-191130624#0"/>
    <trip id="veh24" type="veh_passenger" depart="5.18" departLane="best" from="-156311711#0" to="-238768570#2"/>
    <trip id="veh25" type="veh_passenger" depart="5.39" departLane="best" from="254678148#0" to="-189931962#5"/>
    <trip id="veh26" type="veh_passenger" depart="5.61" departLane="best" from="-191118885#3" to="331480835#0"/>
    <trip id="veh27" type="veh_passenger" depart="5.82" departLane="best" from="156419524#6" to="154991868#6"/>
    <trip id="veh28" type="veh_passenger" depart="6.04" departLane="best" from="158410384#6" to="189921787#3"/>
    <trip id="veh29" type="veh_passenger" depart="6.25" departLane="best" from="158140416#1" to="-330490659"/>
    <trip id="veh31" type="veh_passenger" depart="6.69" departLane="best" from="-1234589418" to="158199182#2"/>
    <trip id="veh32" type="veh_passenger" depart="6.90" departLane="best" from="192724602#4" to="190362379#1"/>
    <trip id="veh33" type="veh_passenger" depart="7.12" departLane="best" from="190290635#0" to="-1040135758#0"/>
    <trip id="veh34" type="veh_passenger" depart="7.33" departLane="best" from="-192969655#2" to="-191118891#7"/>
    <trip id="veh35" type="veh_passenger" depart="7.55" departLane="best" from="-189931981#1" to="332199572#3"/>
    <trip id="veh36" type="veh_passenger" depart="7.76" departLane="best" from="-194981063#2" to="-192969655#10"/>
    <trip id="veh37" type="veh_passenger" depart="7.98" departLane="best" from="157916981#3" to="-661661666#4"/>
    <trip id="veh38" type="veh_passenger" depart="8.20" departLane="best" from="238609675#4" to="1039239989#1"/>
    <trip id="veh39" type="veh_passenger" depart="8.41" departLane="best" from="191093883#0" to="190383487#1"/>
    <trip id="veh40" type="veh_passenger" depart="8.63" departLane="best" from="1242785993#1" to="191079440#2"/>
    <trip id="veh41" type="veh_passenger" depart="8.84" departLane="best" from="153753347#2" to="237621330#2"/>
    <trip id="veh42" type="veh_passenger" depart="9.06" departLane="best" from="-689179722#6" to="190276970#3"/>
    <trip id="veh43" type="veh_passenger" depart="9.27" departLane="best" from="-804195824#1" to="1128048139#1"/>
    <trip id="veh44" type="veh_passenger" depart="9.49" departLane="best" from="-1178534947#0" to="1040801303#8"/>
    <trip id="veh45" type="veh_passenger" depart="9.71" departLane="best" from="-1270795178" to="156296843#5"/>
    <trip id="veh47" type="veh_passenger" depart="10.14" departLane="best" from="-1101676628" to="-332199551#0"/>
    <trip id="veh49" type="veh_passenger" depart="10.57" departLane="best" from="-689103490#1" to="193237117#1"/>
    <trip id="veh50" type="veh_passenger" depart="10.78" departLane="best" from="-1023266004" to="-162339448#23"/>
    <trip id="veh51" type="veh_passenger" depart="11.00" departLane="best" from="-158141284#0" to="-1178023855#0"/>
    <trip id="veh52" type="veh_passenger" depart="11.22" departLane="best" from="191118885#1" to="156340790#0"/>
    <trip id="veh53" type="veh_passenger" depart="11.43" departLane="best" from="1309531828" to="1023265997"/>
    <trip id="veh54" type="veh_passenger" depart="11.65" departLane="best" from="1034808676" to="-51765915#1"/>
    <trip id="veh55" type="veh_passenger" depart="11.86" departLane="best" from="194449288#0" to="191079447#2"/>
    <trip id="veh56" type="veh_passenger" depart="12.08" departLane="best" from="1126855553#1" to="-159290205#1"/>
    <trip id="veh57" type="veh_passenger" depart="12.29" departLane="best" from="238609525#4" to="193477769"/>
    <trip id="veh58" type="veh_passenger" depart="12.51" departLane="best" from="-192072919#8" to="156322600#2"/>
    <trip id="veh59" type="veh_passenger" depart="12.73" departLane="best" from="154906248#4" to="-157916977#0"/>
    <trip id="veh60" type="veh_passenger" depart="12.94" departLane="best" from="190279720#2" to="1178538898"/>
    <trip id="veh61" type="veh_passenger" depart="13.16" departLane="best" from="190362384#1" to="116232201#5"/>
    <trip id="veh62" type="veh_passenger" depart="13.37" departLane="best" from="-1019044741" to="-193237122#4"/>
    <trip id="veh63" type="veh_passenger" depart="13.59" departLane="best" from="-1023266112" to="26774681#0"/>
    <trip id="veh64" type="veh_passenger" depart="13.80" departLane="best" from="207360356#3" to="192072917#1"/>
    <trip id="veh65" type="veh_passenger" depart="14.02" departLane="best" from="-192930091#5" to="-1065785662#1"/>
    <trip id="veh66" type="veh_passenger" depart="14.24" departLane="best" from="-207359237" to="361033191#1"/>
    <trip id="veh67" type="veh_passenger" depart="14.45" departLane="best" from="1170464314#4" to="-1057561783"/>
    <trip id="veh68" type="veh_passenger" depart="14.67" departLane="best" from="-112697458#18" to="-190279717"/>
    <trip id="veh69" type="veh_passenger" depart="14.88" departLane="best" from="-190292790#0" to="-156168897#2"/>
    <trip id="veh70" type="veh_passenger" depart="15.10" departLane="best" from="1040801303#3" to="1207943892#1"/>
    <trip id="veh71" type="veh_passenger" depart="15.31" departLane="best" from="191093883#2" to="194275015#1"/>
    <trip id="veh72" type="veh_passenger" depart="15.53" departLane="best" from="-1019002184" to="189931985#17"/>
    <trip id="veh73" type="veh_passenger" depart="15.75" departLane="best" from="-1178537889" to="-189921794#5"/>
    <trip id="veh74" type="veh_passenger" depart="15.96" departLane="best" from="-189924447" to="-192966968#9"/>
    <trip id="veh75" type="veh_passenger" depart="16.18" departLane="best" from="774655043" to="156421320#1"/>
    <trip id="veh76" type="veh_passenger" depart="16.39" departLane="best" from="-1023266030" to="1127247741"/>
    <trip id="veh77" type="veh_passenger" depart="16.61" departLane="best" from="-156147129#0" to="-190279686#7"/>
    <trip id="veh78" type="veh_passenger" depart="16.82" departLane="best" from="235060969#2" to="153802895#1"/>
    <trip id="veh79" type="veh_passenger" depart="17.04" departLane="best" from="-190292774#2" to="-190276977#1"/>
    <trip id="veh80" type="veh_passenger" depart="17.25" departLane="best" from="-1127483408" to="156308526#6"/>
    <trip id="veh81" type="veh_passenger" depart="17.47" departLane="best" from="-190290630#1" to="238242018"/>
    <trip id="veh82" type="veh_passenger" depart="17.69" departLane="best" from="193229085" to="-1127483407"/>
    <trip id="veh83" type="veh_passenger" depart="17.90" departLane="best" from="-1040811361" to="158014392#4"/>
    <trip id="veh84" type="veh_passenger" depart="18.12" departLane="best" from="-189931997#7" to="-156308521#0"/>
    <trip id="veh85" type="veh_passenger" depart="18.33" departLane="best" from="327103926#2" to="153553996"/>
    <trip id="veh86" type="veh_passenger" depart="18.55" departLane="best" from="1040780764#0" to="-190598816"/>
    <trip id="veh87" type="veh_passenger" depart="18.76" departLane="best" from="-191123099#0" to="-162339448#38"/>
    <trip id="veh88" type="veh_passenger" depart="18.98" departLane="best" from="1201233226#0" to="-1023126750"/>
    <trip id="veh89" type="veh_passenger" depart="19.20" departLane="best" from="1019044736#0" to="1040502617#0"/>
    <trip id="veh90" type="veh_passenger" depart="19.41" departLane="best" from="189921782#0" to="158028069#1"/>
    <trip id="veh91" type="veh_passenger" depart="19.63" departLane="best" from="-693482979" to="120530545#8"/>
    <trip id="veh92" type="veh_passenger" depart="19.84" departLane="best" from="689627434#2" to="235061866#3"/>
    <trip id="veh94" type="veh_passenger" depart="20.27" departLane="best" from="-162339448#33" to="1031992819#2"/>
    <trip id="veh95" type="veh_passenger" depart="20.49" departLane="best" from="995148514" to="191130629#3"/>
    <trip id="veh96" type="veh_passenger" depart="20.71" departLane="best" from="190431695#3" to="-254678159#0"/>
    <trip id="veh97" type="veh_passenger" depart="20.92" departLane="best" from="-1023266095" to="193237120#2"/>
    <trip id="veh98" type="veh_passenger" depart="21.14" departLane="best" from="-1209730717" to="1041106458"/>
    <trip id="veh99" type="veh_passenger" depart="21.35" departLane="best" from="-995150434" to="-192076552"/>
    <trip id="veh101" type="veh_passenger" depart="21.78" departLane="best" from="192965842#3" to="158308540#1"/>
    <trip id="veh102" type="veh_passenger" depart="22.00" departLane="best" from="1057561771#1" to="189931997#3"/>
    <trip id="veh103" type="veh_passenger" depart="22.22" departLane="best" from="689564257#2" to="-1065795658"/>
    <trip id="veh104" type="veh_passenger" depart="22.43" departLane="best" from="321648602#5" to="697138337#2"/>
    <trip id="veh105" type="veh_passenger" depart="22.65" departLane="best" from="-191094724" to="-190598810#0"/>
    <trip id="veh106" type="veh_passenger" depart="22.86" departLane="best" from="-1034823351#2" to="1019044734"/>
    <trip id="veh107" type="veh_passenger" depart="23.08" departLane="best" from="1032031706#1" to="774655938#2"/>
    <trip id="veh108" type="veh_passenger" depart="23.29" departLane="best" from="1227134712#2" to="-162339443#21"/>
    <trip id="veh109" type="veh_passenger" depart="23.51" departLane="best" from="-158004709#10" to="-192072906#5"/>
    <trip id="veh110" type="veh_passenger" depart="23.73" departLane="best" from="562984694#8" to="153690579#2"/>
    <trip id="veh111" type="veh_passenger" depart="23.94" departLane="best" from="1182675617#2" to="189932007#11"/>
    <trip id="veh112" type="veh_passenger" depart="24.16" departLane="best" from="1057561783" to="153755757#0"/>
    <trip id="veh113" type="veh_passenger" depart="24.37" departLane="best" from="1126855559#2" to="192969655#1"/>
    <trip id="veh114" type="veh_passenger" depart="24.59" departLane="best" from="-158028057#2" to="-52246256#16"/>
    <trip id="veh115" type="veh_passenger" depart="24.80" departLane="best" from="115879835#1" to="-160554109"/>
    <trip id="veh116" type="veh_passenger" depart="25.02" departLane="best" from="153813982#7" to="-158136147"/>
    <trip id="veh117" type="veh_passenger" depart="25.24" departLane="best" from="190321658#2" to="-154992380#12"/>
    <trip id="veh118" type="veh_passenger" depart="25.45" departLane="best" from="237429749" to="-190383397#5"/>
    <trip id="veh119" type="veh_passenger" depart="25.67" departLane="best" from="153813982#1" to="156167688#4"/>
    <trip id="veh120" type="veh_passenger" depart="25.88" departLane="best" from="-778227351#1" to="153753348#4"/>
    <trip id="veh121" type="veh_passenger" depart="26.10" departLane="best" from="1148494659" to="-325486000#0"/>
    <trip id="veh122" type="veh_passenger" depart="26.31" departLane="best" from="189931926#0" to="159841043#0"/>
    <trip id="veh123" type="veh_passenger" depart="26.53" departLane="best" from="190327972#0" to="-661661666#7"/>
    <trip id="veh124" type="veh_passenger" depart="26.75" departLane="best" from="158014642#3" to="-192073511"/>
    <trip id="veh125" type="veh_passenger" depart="26.96" departLane="best" from="-193114137" to="190276970#6"/>
    <trip id="veh126" type="veh_passenger" depart="27.18" departLane="best" from="1130844565#5" to="-1039239549#0"/>
    <trip id="veh127" type="veh_passenger" depart="27.39" departLane="best" from="986447752" to="803351062#0"/>
    <trip id="veh128" type="veh_passenger" depart="27.61" departLane="best" from="1134587659" to="-189931993"/>
    <trip id="veh129" type="veh_passenger" depart="27.82" departLane="best" from="-191094724" to="320975260#0"/>
    <trip id="veh130" type="veh_passenger" depart="28.04" departLane="best" from="207405239#1" to="207405240#2"/>
    <trip id="veh131" type="veh_passenger" depart="28.25" departLane="best" from="-254609060#2" to="-158028071#1"/>
    <trip id="veh132" type="veh_passenger" depart="28.47" departLane="best" from="192072919#0" to="158712045#3"/>
    <trip id="veh133" type="veh_passenger" depart="28.69" departLane="best" from="154991874#2" to="718369746#0"/>
    <trip id="veh134" type="veh_passenger" depart="28.90" departLane="best" from="156421340#2" to="1023265957"/>
    <trip id="veh135" type="veh_passenger" depart="29.12" departLane="best" from="191149361#0" to="192073507#1"/>
    <trip id="veh136" type="veh_passenger" depart="29.33" departLane="best" from="158013562#0" to="-332199545"/>
    <trip id="veh137" type="veh_passenger" depart="29.55" departLane="best" from="-156309771#1" to="-153554007#0"/>
    <trip id="veh138" type="veh_passenger" depart="29.76" departLane="best" from="-1238555210" to="1222163950"/>
    <trip id="veh139" type="veh_passenger" depart="29.98" departLane="best" from="191129877#13" to="154905341#0"/>
    <trip id="veh140" type="veh_passenger" depart="30.20" departLane="best" from="-159841040#1" to="189931924#4"/>
    <trip id="veh141" type="veh_passenger" depart="30.41" departLane="best" from="156309770" to="-191091873"/>
    <trip id="veh142" type="veh_passenger" depart="30.63" departLane="best" from="-1065795891" to="238242016#3"/>
    <trip id="veh143" type="veh_passenger" depart="30.84" departLane="best" from="1019044736#0" to="-191130613"/>
    <trip id="veh144" type="veh_passenger" depart="31.06" departLane="best" from="1022901437#0" to="190321680#2"/>
    <trip id="veh145" type="veh_passenger" depart="31.27" departLane="best" from="156311720#1" to="-191064582#8"/>
    <trip id="veh146" type="veh_passenger" depart="31.49" departLane="best" from="189931950#3" to="1216158630#0"/>
    <trip id="veh147" type="veh_passenger" depart="31.71" departLane="best" from="1022901434" to="-1023265983#0"/>
    <trip id="veh148" type="veh_passenger" depart="31.92" departLane="best" from="113752054#5" to="213852710#5"/>
    <trip id="veh149" type="veh_passenger" depart="32.14" departLane="best" from="237621339#1" to="1196027695#1"/>
    <trip id="veh150" type="veh_passenger" depart="32.35" departLane="best" from="192073501#6" to="153753347#1"/>
    <trip id="veh151" type="veh_passenger" depart="32.57" departLane="best" from="-156421311#5" to="156168894#1"/>
    <trip id="veh152" type="veh_passenger" depart="32.78" departLane="best" from="192965781#0" to="-237621334#16"/>
    <trip id="veh153" type="veh_passenger" depart="33.00" departLane="best" from="191061601" to="193237116#2"/>
    <trip id="veh154" type="veh_passenger" depart="33.22" departLane="best" from="-237621328#1" to="-189931970#0"/>
    <trip id="veh156" type="veh_passenger" depart="33.65" departLane="best" from="190383367#7" to="218553611#2"/>
    <trip id="veh157" type="veh_passenger" depart="33.86" departLane="best" from="-693279820" to="156168877#1"/>
    <trip id="veh158" type="veh_passenger" depart="34.08" departLane="best" from="-157970839#4" to="281938100"/>
    <trip id="veh159" type="veh_passenger" depart="34.29" departLane="best" from="-193237125#3" to="-689601517#0"/>
    <trip id="veh160" type="veh_passenger" depart="34.51" departLane="best" from="191129891#0" to="209297292#1"/>
    <trip id="veh161" type="veh_passenger" depart="34.73" departLane="best" from="-1034808660" to="-189931952#4"/>
    <trip id="veh162" type="veh_passenger" depart="34.94" departLane="best" from="-193477753" to="281938100"/>
    <trip id="veh163" type="veh_passenger" depart="35.16" departLane="best" from="191118879#1" to="-193237132#3"/>
    <trip id="veh164" type="veh_passenger" depart="35.37" departLane="best" from="191129891#0" to="-191118885#4"/>
    <trip id="veh165" type="veh_passenger" depart="35.59" departLane="best" from="-190793748#0" to="-1252286298#10"/>
    <trip id="veh166" type="veh_passenger" depart="35.80" departLane="best" from="193477753" to="-193229474"/>
    <trip id="veh167" type="veh_passenger" depart="36.02" departLane="best" from="-190277011#0" to="191319417#0"/>
    <trip id="veh168" type="veh_passenger" depart="36.24" departLane="best" from="-1040135757#1" to="-192708291#3"/>
    <trip id="veh169" type="veh_passenger" depart="36.45" departLane="best" from="191053291#2" to="-190279711#6"/>
    <trip id="veh171" type="veh_passenger" depart="36.88" departLane="best" from="562946628#6" to="-191136606#1"/>
    <trip id="veh172" type="veh_passenger" depart="37.10" departLane="best" from="156324979#0" to="689200746#0"/>
    <trip id="veh173" type="veh_passenger" depart="37.31" departLane="best" from="693299733" to="1174941847"/>
    <trip id="veh174" type="veh_passenger" depart="37.53" departLane="best" from="332199558#0" to="-153554004"/>
    <trip id="veh175" type="veh_passenger" depart="37.75" departLane="best" from="689066201" to="-159290205#0"/>
    <trip id="veh176" type="veh_passenger" depart="37.96" departLane="best" from="533800880#2" to="-191094730#3"/>
    <trip id="veh177" type="veh_passenger" depart="38.18" departLane="best" from="1252286298#14" to="1023265993"/>
    <trip id="veh178" type="veh_passenger" depart="38.39" departLane="best" from="189921778#0" to="-192969315#0"/>
    <trip id="veh179" type="veh_passenger" depart="38.61" departLane="best" from="154905340#0" to="1128140450#7"/>
    <trip id="veh180" type="veh_passenger" depart="38.82" departLane="best" from="-332199570#8" to="153690569"/>
    <trip id="veh181" type="veh_passenger" depart="39.04" departLane="best" from="-190892646#0" to="159290201#3"/>
    <trip id="veh182" type="veh_passenger" depart="39.25" departLane="best" from="1022840522" to="260320285"/>
    <trip id="veh183" type="veh_passenger" depart="39.47" departLane="best" from="-1178531464" to="-162339446#3"/>
    <trip id="veh184" type="veh_passenger" depart="39.69" departLane="best" from="189931952#5" to="158016214#2"/>
    <trip id="veh185" type="veh_passenger" depart="39.90" departLane="best" from="-238609675#12" to="-112699325#1"/>
    <trip id="veh186" type="veh_passenger" depart="40.12" departLane="best" from="158013562#21" to="-193237149#3"/>
    <trip id="veh187" type="veh_passenger" depart="40.33" departLane="best" from="-192969315#0" to="192966156"/>
    <trip id="veh188" type="veh_passenger" depart="40.55" departLane="best" from="162339443#11" to="192073512#4"/>
    <trip id="veh189" type="veh_passenger" depart="40.76" departLane="best" from="-192965843#0" to="693348118#0"/>
    <trip id="veh190" type="veh_passenger" depart="40.98" departLane="best" from="-689603537" to="-191928005#9"/>
    <trip id="veh191" type="veh_passenger" depart="41.20" departLane="best" from="-156168892#2" to="-804183083"/>
    <trip id="veh192" type="veh_passenger" depart="41.41" departLane="best" from="-332199563#0" to="-158140410#0"/>
    <trip id="veh193" type="veh_passenger" depart="41.63" departLane="best" from="-237621336#3" to="156147149#1"/>
    <trip id="veh194" type="veh_passenger" depart="41.84" departLane="best" from="-192074015#0" to="-1205159686#1"/>
    <trip id="veh195" type="veh_passenger" depart="42.06" departLane="best" from="-1019044733" to="-191359704#11"/>
    <trip id="veh196" type="veh_passenger" depart="42.27" departLane="best" from="-1023126731" to="153694184#0"/>
    <trip id="veh197" type="veh_passenger" depart="42.49" departLane="best" from="156421342#1" to="-1040426866#5"/>
    <trip id="veh198" type="veh_passenger" depart="42.71" departLane="best" from="-1023266085" to="189931997#2"/>
    <trip id="veh199" type="veh_passenger" depart="42.92" departLane="best" from="1040780768#0" to="237621336#4"/>
    <trip id="veh200" type="veh_passenger" depart="43.14" departLane="best" from="191053592#1" to="-158320869#0"/>
    <trip id="veh201" type="veh_passenger" depart="43.35" departLane="best" from="-1165580965#0" to="1126855559#0"/>
    <trip id="veh202" type="veh_passenger" depart="43.57" departLane="best" from="156308528" to="-194981063#6"/>
    <trip id="veh203" type="veh_passenger" depart="43.78" departLane="best" from="191231305" to="190276968#2"/>
    <trip id="veh204" type="veh_passenger" depart="44.00" departLane="best" from="158016217#2" to="-190279686#7"/>
    <trip id="veh205" type="veh_passenger" depart="44.22" departLane="best" from="189923093#0" to="-1034808655"/>
    <trip id="veh206" type="veh_passenger" depart="44.43" departLane="best" from="190383379#0" to="1040801303#6"/>
    <trip id="veh207" type="veh_passenger" depart="44.65" departLane="best" from="192966157" to="1130864654"/>
    <trip id="veh209" type="veh_passenger" depart="45.08" departLane="best" from="-174252876#0" to="158410389#2"/>
    <trip id="veh210" type="veh_passenger" depart="45.29" departLane="best" from="1118635394" to="-190383367#17"/>
    <trip id="veh211" type="veh_passenger" depart="45.51" departLane="best" from="157927461#0" to="-1023126729#1"/>
    <trip id="veh212" type="veh_passenger" depart="45.73" departLane="best" from="-189932011#0" to="190321676#1"/>
    <trip id="veh213" type="veh_passenger" depart="45.94" departLane="best" from="-1237989166" to="1019993847#1"/>
    <trip id="veh214" type="veh_passenger" depart="46.16" departLane="best" from="-158640625" to="52151691"/>
    <trip id="veh215" type="veh_passenger" depart="46.37" departLane="best" from="1136761588#2" to="1041106454"/>
    <trip id="veh216" type="veh_passenger" depart="46.59" departLane="best" from="-190431693#1" to="192966681"/>
    <trip id="veh217" type="veh_passenger" depart="46.80" departLane="best" from="-1038597483" to="-191118891#4"/>
    <trip id="veh218" type="veh_passenger" depart="47.02" departLane="best" from="158014389#4" to="718414128#0"/>
    <trip id="veh219" type="veh_passenger" depart="47.24" departLane="best" from="153815425#0" to="473824686#5"/>
    <trip id="veh220" type="veh_passenger" depart="47.45" departLane="best" from="237520358#4" to="154994776"/>
    <trip id="veh221" type="veh_passenger" depart="47.67" departLane="best" from="160554113#1" to="112697458#14"/>
    <trip id="veh222" type="veh_passenger" depart="47.88" departLane="best" from="191917804#1" to="-1205159686#0"/>
    <trip id="veh223" type="veh_passenger" depart="48.10" departLane="best" from="237621322#6" to="189931985#8"/>
    <trip id="veh224" type="veh_passenger" depart="48.31" departLane="best" from="1040801303#17" to="191053288#0"/>
    <trip id="veh225" type="veh_passenger" depart="48.53" departLane="best" from="190383498#1" to="156322592#1"/>
    <trip id="veh226" type="veh_passenger" depart="48.75" departLane="best" from="-190292790#0" to="349753995"/>
    <trip id="veh227" type="veh_passenger" depart="48.96" departLane="best" from="156173937#3" to="-191129890#0"/>
    <trip id="veh228" type="veh_passenger" depart="49.18" departLane="best" from="-1154690446" to="-191322452#12"/>
    <trip id="veh229" type="veh_passenger" depart="49.39" departLane="best" from="-191123098#2" to="-193229069#2"/>
    <trip id="veh230" type="veh_passenger" depart="49.61" departLane="best" from="-1180172858" to="-156322586#0"/>
    <trip id="veh231" type="veh_passenger" depart="49.82" departLane="best" from="-190292792#7" to="158320871#1"/>
    <trip id="veh232" type="veh_passenger" depart="50.04" departLane="best" from="158712046#4" to="1117798679#0"/>
    <trip id="veh233" type="veh_passenger" depart="50.25" departLane="best" from="-693315743#0" to="1190527045"/>
    <trip id="veh234" type="veh_passenger" depart="50.47" departLane="best" from="-719301734" to="189931944"/>
    <trip id="veh235" type="veh_passenger" depart="50.69" departLane="best" from="-803588776#3" to="238242012#0"/>
    <trip id="veh236" type="veh_passenger" depart="50.90" departLane="best" from="153753347#0" to="158410386#2"/>
    <trip id="veh238" type="veh_passenger" depart="51.33" departLane="best" from="1030294705#1" to="-1023126733#1"/>
    <trip id="veh239" type="veh_passenger" depart="51.55" departLane="best" from="-237621333#3" to="-190276992#0"/>
    <trip id="veh240" type="veh_passenger" depart="51.76" departLane="best" from="192969315#0" to="47696291#4"/>
    <trip id="veh241" type="veh_passenger" depart="51.98" departLane="best" from="777730941#1" to="189932004#4"/>
    <trip id="veh242" type="veh_passenger" depart="52.20" departLane="best" from="1196350456#1" to="154905335#2"/>
    <trip id="veh243" type="veh_passenger" depart="52.41" departLane="best" from="190276977#4" to="-190276970#4"/>
    <trip id="veh244" type="veh_passenger" depart="52.63" departLane="best" from="1023266003#0" to="-1038598936#0"/>
    <trip id="veh245" type="veh_passenger" depart="52.84" departLane="best" from="194981076#3" to="158140416#6"/>
    <trip id="veh246" type="veh_passenger" depart="53.06" departLane="best" from="689638496#0" to="-158308037"/>
    <trip id="veh247" type="veh_passenger" depart="53.27" departLane="best" from="1040502617#1" to="-156168894#4"/>
    <trip id="veh248" type="veh_passenger" depart="53.49" departLane="best" from="-156168874#6" to="-1034816019#5"/>
    <trip id="veh249" type="veh_passenger" depart="53.71" departLane="best" from="-533800882#6" to="1309222636"/>
    <trip id="veh250" type="veh_passenger" depart="53.92" departLane="best" from="-1034823345#0" to="156419503#0"/>
    <trip id="veh251" type="veh_passenger" depart="54.14" departLane="best" from="-156311711#1" to="1040189286"/>
    <trip id="veh252" type="veh_passenger" depart="54.35" departLane="best" from="-1041106455#0" to="-325486000#2"/>