<?xml version="1.0" encoding="UTF-8"?>

<!-- generated on 2024-09-25 19:32:39.497315 by osmWebWizard.py v1_20_0+0002-343658e7c64
<configuration>
    <net-file value="D:\SW\SUMO\tools\2024-09-25-19-22-37\osm.net.xml.gz"/>
    <additional-files value="D:\SW\SUMO\tools\2024-09-25-19-22-37\osm_stops.add.xml,D:\SW\SUMO\tools\2024-09-25-19-22-37\osm_pt.rou.xml"/>
    <output-trip-file value="D:\SW\SUMO\tools\2024-09-25-19-22-37\osm.pedestrian.trips.xml"/>
    <route-file value="D:\SW\SUMO\tools\2024-09-25-19-22-37\osm.pedestrian.rou.xml"/>
    <persontrips value="True"/>
    <persontrip.walk-opposite-factor value="0.8"/>
    <prefix value="ped"/>
    <trip-attributes value="modes=&quot;public&quot;"/>
    <vehicle-class value="pedestrian"/>
    <fringe-factor value="1"/>
    <insertion-density value="40.0"/>
    <duarouter-weights.tls-penalty value="20"/>
</configuration>
-->

<routes xmlns:xsi="http://www.w3.org/2001/XMLSchema-instance" xsi:noNamespaceSchemaLocation="http://sumo.dlr.de/xsd/routes_file.xsd">
    <vType id="ped_pedestrian" vClass="pedestrian"/>
    <person id="ped0" depart="0.00" type="ped_pedestrian">
        <personTrip from="190272841" to="-1042816069" modes="public"/>
    </person>
    <person id="ped1" depart="0.27" type="ped_pedestrian">
        <personTrip from="-191324228#0" to="-191123100" modes="public"/>
    </person>
    <person id="ped2" depart="0.53" type="ped_pedestrian">
        <personTrip from="191138602" to="191033309" modes="public"/>
    </person>
    <person id="ped3" depart="0.80" type="ped_pedestrian">
        <personTrip from="192724606" to="-1207953917" modes="public"/>
    </person>
    <person id="ped4" depart="1.07" type="ped_pedestrian">
        <personTrip from="-193478512#0" to="-1065785703" modes="public"/>
    </person>
    <person id="ped5" depart="1.34" type="ped_pedestrian">
        <personTrip from="-191118893" to="1027488383" modes="public"/>
    </person>
    <person id="ped6" depart="1.60" type="ped_pedestrian">
        <personTrip from="-1064228083#1" to="-191079977" modes="public"/>
    </person>
    <person id="ped7" depart="1.87" type="ped_pedestrian">
        <personTrip from="190362383#0" to="1173693662" modes="public"/>
    </person>
    <person id="ped8" depart="2.14" type="ped_pedestrian">
        <personTrip from="-191118909#1" to="1217767686#0" modes="public"/>
    </person>
    <person id="ped9" depart="2.41" type="ped_pedestrian">
        <personTrip from="191359726#1" to="-1019946376" modes="public"/>
    </person>
    <person id="ped10" depart="2.67" type="ped_pedestrian">
        <personTrip from="191359710#0" to="191079978" modes="public"/>
    </person>
    <person id="ped11" depart="2.94" type="ped_pedestrian">
        <personTrip from="-191912350" to="-190383368" modes="public"/>
    </person>
    <person id="ped12" depart="3.21" type="ped_pedestrian">
        <personTrip from="195110758#0" to="-191911200#0" modes="public"/>
    </person>
    <person id="ped13" depart="3.48" type="ped_pedestrian">
        <personTrip from="-1209956140" to="-1210201949" modes="public"/>
    </person>
    <person id="ped14" depart="3.74" type="ped_pedestrian">
        <personTrip from="191913404#0" to="1240688852#1" modes="public"/>
    </person>
    <person id="ped15" depart="4.01" type="ped_pedestrian">
        <personTrip from="191359714" to="191136612#0" modes="public"/>
    </person>
    <person id="ped16" depart="4.28" type="ped_pedestrian">
        <personTrip from="115879796#1" to="473824686#5" modes="public"/>
    </person>
    <person id="ped17" depart="4.55" type="ped_pedestrian">
        <personTrip from="-192714141#9" to="1180190401" modes="public"/>
    </person>
    <person id="ped18" depart="4.81" type="ped_pedestrian">
        <personTrip from="191561280#1" to="1311670591#2" modes="public"/>
    </person>
    <person id="ped19" depart="5.08" type="ped_pedestrian">
        <personTrip from="192063216#1" to="1209305452" modes="public"/>
    </person>
    <person id="ped20" depart="5.35" type="ped_pedestrian">
        <personTrip from="191085052#1" to="-1154167434#0" modes="public"/>
    </person>
    <person id="ped21" depart="5.62" type="ped_pedestrian">
        <personTrip from="-191130607" to="-191356931" modes="public"/>
    </person>
    <person id="ped22" depart="5.88" type="ped_pedestrian">
        <personTrip from="-1207062736" to="-191138576#0" modes="public"/>
    </person>
    <person id="ped23" depart="6.15" type="ped_pedestrian">
        <personTrip from="-1218216597" to="-191324267#1" modes="public"/>
    </person>
    <person id="ped24" depart="6.42" type="ped_pedestrian">
        <personTrip from="189923095" to="-192226215#0" modes="public"/>
    </person>
    <person id="ped25" depart="6.69" type="ped_pedestrian">
        <personTrip from="-192392146#1" to="-191089316#4" modes="public"/>
    </person>
    <person id="ped26" depart="6.95" type="ped_pedestrian">
        <personTrip from="-191320759#6" to="193654957#1" modes="public"/>
    </person>
    <person id="ped27" depart="7.22" type="ped_pedestrian">
        <personTrip from="190362377#0" to="1309330403" modes="public"/>
    </person>
    <person id="ped28" depart="7.49" type="ped_pedestrian">
        <personTrip from="-191009052#1" to="191136605#0" modes="public"/>
    </person>
    <person id="ped29" depart="7.75" type="ped_pedestrian">
        <personTrip from="-190431780" to="-192717871" modes="public"/>
    </person>
    <person id="ped30" depart="8.02" type="ped_pedestrian">
        <personTrip from="693304507#4" to="190272846#2" modes="public"/>
    </person>
    <person id="ped31" depart="8.29" type="ped_pedestrian">
        <personTrip from="1192250087" to="191034165#7" modes="public"/>
    </person>
    <person id="ped32" depart="8.56" type="ped_pedestrian">
        <personTrip from="191913392#1" to="191324220" modes="public"/>
    </person>
    <person id="ped33" depart="8.82" type="ped_pedestrian">
        <personTrip from="-191136597#1" to="-1065795661" modes="public"/>
    </person>
    <person id="ped34" depart="9.09" type="ped_pedestrian">
        <personTrip from="-191360651" to="-191320765" modes="public"/>
    </person>
    <person id="ped35" depart="9.36" type="ped_pedestrian">
        <personTrip from="-191089404" to="193660727" modes="public"/>
    </person>
    <person id="ped36" depart="9.63" type="ped_pedestrian">
        <personTrip from="192708276#1" to="-191360647" modes="public"/>
    </person>
    <person id="ped37" depart="9.89" type="ped_pedestrian">
        <personTrip from="190383377#1" to="-192927636#0" modes="public"/>
    </person>
    <person id="ped38" depart="10.16" type="ped_pedestrian">
        <personTrip from="193230766" to="-570510785#1" modes="public"/>
    </person>
    <person id="ped39" depart="10.43" type="ped_pedestrian">
        <personTrip from="-191320753" to="-191228694#0" modes="public"/>
    </person>
    <person id="ped40" depart="10.70" type="ped_pedestrian">
        <personTrip from="1200740821" to="-191320737" modes="public"/>
    </person>
    <person id="ped41" depart="10.96" type="ped_pedestrian">
        <personTrip from="1209983209#2" to="192927631" modes="public"/>
    </person>
    <person id="ped42" depart="11.23" type="ped_pedestrian">
        <personTrip from="-192928288" to="-191118902#0" modes="public"/>
    </person>
    <person id="ped43" depart="11.50" type="ped_pedestrian">
        <personTrip from="794772246#2" to="1057561793" modes="public"/>
    </person>
    <person id="ped44" depart="11.77" type="ped_pedestrian">
        <personTrip from="-1209725374" to="-115610210#2" modes="public"/>
    </person>
    <person id="ped45" depart="12.03" type="ped_pedestrian">
        <personTrip from="-1236888721" to="158014388#1" modes="public"/>
    </person>
    <person id="ped46" depart="12.30" type="ped_pedestrian">
        <personTrip from="191356962#11" to="-193478512#1" modes="public"/>
    </person>
    <person id="ped47" depart="12.57" type="ped_pedestrian">
        <personTrip from="-1179655969" to="-192717886" modes="public"/>
    </person>
    <person id="ped48" depart="12.84" type="ped_pedestrian">
        <personTrip from="776834440" to="1153187696#0" modes="public"/>
    </person>
    <person id="ped49" depart="13.10" type="ped_pedestrian">
        <personTrip from="469418431#1" to="192062340#2" modes="public"/>
    </person>
    <person id="ped50" depart="13.37" type="ped_pedestrian">
        <personTrip from="-1019992637#0" to="191123077" modes="public"/>
    </person>
    <person id="ped51" depart="13.64" type="ped_pedestrian">
        <personTrip from="191034156#2" to="115879814" modes="public"/>
    </person>
    <person id="ped52" depart="13.91" type="ped_pedestrian">
        <personTrip from="-191320759#5" to="190272863#1" modes="public"/>
    </person>
    <person id="ped53" depart="14.17" type="ped_pedestrian">
        <personTrip from="-1239030812#1" to="-193657756" modes="public"/>
    </person>
    <person id="ped54" depart="14.44" type="ped_pedestrian">
        <personTrip from="-247829614" to="194619190#1" modes="public"/>
    </person>
    <person id="ped55" depart="14.71" type="ped_pedestrian">
        <personTrip from="192708273#2" to="-191320744#0" modes="public"/>
    </person>
    <person id="ped56" depart="14.97" type="ped_pedestrian">
        <personTrip from="1023265994" to="-191033313#1" modes="public"/>
    </person>
    <person id="ped57" depart="15.24" type="ped_pedestrian">
        <personTrip from="193230755#9" to="192392148#0" modes="public"/>
    </person>
    <person id="ped58" depart="15.51" type="ped_pedestrian">
        <personTrip from="-191359654" to="189931945#1" modes="public"/>
    </person>
    <person id="ped59" depart="15.78" type="ped_pedestrian">
        <personTrip from="1309221165" to="-190362389" modes="public"/>
    </person>
    <person id="ped60" depart="16.04" type="ped_pedestrian">
        <personTrip from="191320729" to="116065393" modes="public"/>
    </person>
    <person id="ped61" depart="16.31" type="ped_pedestrian">
        <personTrip from="191324262" to="1154167433#1" modes="public"/>
    </person>
    <person id="ped62" depart="16.58" type="ped_pedestrian">
        <personTrip from="-1019044730" to="-191363042#0" modes="public"/>
    </person>
    <person id="ped63" depart="16.85" type="ped_pedestrian">
        <personTrip from="-1023266104#0" to="193479537#1" modes="public"/>
    </person>
    <person id="ped64" depart="17.11" type="ped_pedestrian">
        <personTrip from="192714141#0" to="191561445" modes="public"/>
    </person>
    <person id="ped65" depart="17.38" type="ped_pedestrian">
        <personTrip from="-191359718#4" to="-1173663050" modes="public"/>
    </person>
    <person id="ped66" depart="17.65" type="ped_pedestrian">
        <personTrip from="192708292" to="194273232" modes="public"/>
    </person>
    <person id="ped67" depart="17.92" type="ped_pedestrian">
        <personTrip from="-1207945354" to="1019946377" modes="public"/>
    </person>
    <person id="ped68" depart="18.18" type="ped_pedestrian">
        <personTrip from="-1196278620" to="191319439#0" modes="public"/>
    </person>
    <person id="ped69" depart="18.45" type="ped_pedestrian">
        <personTrip from="191320748" to="-153933321#11" modes="public"/>
    </person>
    <person id="ped70" depart="18.72" type="ped_pedestrian">
        <personTrip from="-743210397#0" to="1178542378" modes="public"/>
    </person>
    <person id="ped71" depart="18.99" type="ped_pedestrian">
        <personTrip from="-191320756" to="192658625#1" modes="public"/>
    </person>
    <person id="ped72" depart="19.25" type="ped_pedestrian">
        <personTrip from="-193478722#0" to="-191090066" modes="public"/>
    </person>
    <person id="ped73" depart="19.52" type="ped_pedestrian">
        <personTrip from="116065375" to="191136612#1" modes="public"/>
    </person>
    <person id="ped74" depart="19.79" type="ped_pedestrian">
        <personTrip from="-191084290#1" to="-191359748#1" modes="public"/>
    </person>
    <person id="ped75" depart="20.06" type="ped_pedestrian">
        <personTrip from="743210397#1" to="190362383#0" modes="public"/>
    </person>
    <person id="ped76" depart="20.32" type="ped_pedestrian">
        <personTrip from="-193660719#3" to="1067784269" modes="public"/>
    </person>
    <person id="ped77" depart="20.59" type="ped_pedestrian">
        <personTrip from="-1310432233" to="-191129894#1" modes="public"/>
    </person>
    <person id="ped78" depart="20.86" type="ped_pedestrian">
        <personTrip from="-191911209#0" to="1210242241#1" modes="public"/>
    </person>
    <person id="ped79" depart="21.12" type="ped_pedestrian">
        <personTrip from="-191136612#0" to="-191118908#1" modes="public"/>
    </person>
    <person id="ped80" depart="21.39" type="ped_pedestrian">
        <personTrip from="-1199754527" to="174252535#1" modes="public"/>
    </person>
    <person id="ped81" depart="21.66" type="ped_pedestrian">
        <personTrip from="-191136597#0" to="192928850#2" modes="public"/>
    </person>
    <person id="ped82" depart="21.93" type="ped_pedestrian">
        <personTrip from="192062337" to="-1199750848" modes="public"/>
    </person>
    <person id="ped83" depart="22.19" type="ped_pedestrian">
        <personTrip from="-191149359" to="191009047#1" modes="public"/>
    </person>
    <person id="ped84" depart="22.46" type="ped_pedestrian">
        <personTrip from="-191091456#0" to="-158014388#0" modes="public"/>
    </person>
    <person id="ped85" depart="22.73" type="ped_pedestrian">
        <personTrip from="193654928#0" to="1207071225#0" modes="public"/>
    </person>
    <person id="ped86" depart="23.00" type="ped_pedestrian">
        <personTrip from="-719696527#0" to="191356911#0" modes="public"/>
    </person>
    <person id="ped87" depart="23.26" type="ped_pedestrian">
        <personTrip from="191359716" to="-191060985" modes="public"/>
    </person>
    <person id="ped88" depart="23.53" type="ped_pedestrian">
        <personTrip from="-1210203946#1" to="-193654926#2" modes="public"/>
    </person>
    <person id="ped89" depart="23.80" type="ped_pedestrian">
        <personTrip from="-193478724#1" to="-689658112#1" modes="public"/>
    </person>
    <person id="ped90" depart="24.07" type="ped_pedestrian">
        <personTrip from="191136602#2" to="191033298#2" modes="public"/>
    </person>
    <person id="ped91" depart="24.33" type="ped_pedestrian">
        <personTrip from="689586668" to="-1210242241#0" modes="public"/>
    </person>
    <person id="ped92" depart="24.60" type="ped_pedestrian">
        <personTrip from="-192966679" to="-191912344#0" modes="public"/>
    </person>
    <person id="ped93" depart="24.87" type="ped_pedestrian">
        <personTrip from="192063216#1" to="-191229524#1" modes="public"/>
    </person>
    <person id="ped94" depart="25.14" type="ped_pedestrian">
        <personTrip from="-191060984#1" to="-203361521" modes="public"/>
    </person>
    <person id="ped95" depart="25.40" type="ped_pedestrian">
        <personTrip from="-193478512#0" to="-191324273#1" modes="public"/>
    </person>
    <person id="ped96" depart="25.67" type="ped_pedestrian">
        <personTrip from="-191231176" to="193475635#0" modes="public"/>
    </person>
    <person id="ped97" depart="25.94" type="ped_pedestrian">
        <personTrip from="-194273708#1" to="192063215" modes="public"/>
    </person>
    <person id="ped98" depart="26.21" type="ped_pedestrian">
        <personTrip from="1179656112" to="-115652876" modes="public"/>
    </person>
    <person id="ped99" depart="26.47" type="ped_pedestrian">
        <personTrip from="992291717" to="191909810#1" modes="public"/>
    </person>
    <person id="ped100" depart="26.74" type="ped_pedestrian">
        <personTrip from="363570962" to="193478720#1" modes="public"/>
    </person>
    <person id="ped101" depart="27.01" type="ped_pedestrian">
        <personTrip from="191913404#7" to="-190625333" modes="public"/>
    </person>
    <person id="ped102" depart="27.28" type="ped_pedestrian">
        <personTrip from="1019946375" to="-191091453#1" modes="public"/>
    </person>
    <person id="ped103" depart="27.54" type="ped_pedestrian">
        <personTrip from="-192928840#1" to="-1174200829" modes="public"/>
    </person>
    <person id="ped104" depart="27.81" type="ped_pedestrian">
        <personTrip from="-192714146#3" to="689656953#1" modes="public"/>
    </person>
    <person id="ped105" depart="28.08" type="ped_pedestrian">
        <personTrip from="-191320756" to="191356909#0" modes="public"/>
    </person>
    <person id="ped106" depart="28.34" type="ped_pedestrian">
        <personTrip from="-247829621" to="-193478722#0" modes="public"/>
    </person>
    <person id="ped107" depart="28.61" type="ped_pedestrian">
        <personTrip from="195110758#1" to="761371348" modes="public"/>
    </person>
    <person id="ped108" depart="28.88" type="ped_pedestrian">
        <personTrip from="1182675621" to="191118893" modes="public"/>
    </person>
    <person id="ped109" depart="29.15" type="ped_pedestrian">
        <personTrip from="-190383365#2" to="-191359640#3" modes="public"/>
    </person>
    <person id="ped110" depart="29.41" type="ped_pedestrian">
        <personTrip from="349738527" to="1209676739" modes="public"/>
    </person>
    <person id="ped111" depart="29.68" type="ped_pedestrian">
        <personTrip from="1170468772" to="191228694#0" modes="public"/>
    </person>
    <person id="ped112" depart="29.95" type="ped_pedestrian">
        <personTrip from="-1173253099#2" to="1209983209#0" modes="public"/>
    </person>
    <person id="ped113" depart="30.22" type="ped_pedestrian">
        <personTrip from="1023266105" to="191917997#0" modes="public"/>
    </person>
    <person id="ped114" depart="30.48" type="ped_pedestrian">
        <personTrip from="-190383378#0" to="235061511#9" modes="public"/>
    </person>
    <person id="ped115" depart="30.75" type="ped_pedestrian">
        <personTrip from="-1207065193" to="-191034165#7" modes="public"/>
    </person>
    <person id="ped116" depart="31.02" type="ped_pedestrian">
        <personTrip from="1227109536#0" to="191033302#0" modes="public"/>
    </person>
    <person id="ped117" depart="31.29" type="ped_pedestrian">
        <personTrip from="-191138589#3" to="-1310028164" modes="public"/>
    </person>
    <person id="ped118" depart="31.55" type="ped_pedestrian">
        <personTrip from="192722678" to="-191174024" modes="public"/>
    </person>
    <person id="ped119" depart="31.82" type="ped_pedestrian">
        <personTrip from="1226443702" to="1311759805" modes="public"/>
    </person>
    <person id="ped120" depart="32.09" type="ped_pedestrian">
        <personTrip from="-193475624#2" to="1209983206" modes="public"/>
    </person>
    <person id="ped121" depart="32.36" type="ped_pedestrian">
        <personTrip from="1122212776#1" to="193654926#0" modes="public"/>
    </person>
    <person id="ped122" depart="32.62" type="ped_pedestrian">
        <personTrip from="-191084491#2" to="191094725" modes="public"/>
    </person>
    <person id="ped123" depart="32.89" type="ped_pedestrian">
        <personTrip from="-191150017#1" to="-192927636#0" modes="public"/>
    </person>
    <person id="ped124" depart="33.16" type="ped_pedestrian">
        <personTrip from="191033294" to="-191359664#0" modes="public"/>
    </person>
    <person id="ped125" depart="33.43" type="ped_pedestrian">
        <personTrip from="-191360656#0" to="191231309" modes="public"/>
    </person>
    <person id="ped126" depart="33.69" type="ped_pedestrian">
        <personTrip from="-1200740035" to="-473930201" modes="public"/>
    </person>
    <person id="ped127" depart="33.96" type="ped_pedestrian">
        <personTrip from="915787551#0" to="775014753" modes="public"/>
    </person>
    <person id="ped128" depart="34.23" type="ped_pedestrian">
        <personTrip from="-1200749421" to="-191090967#1" modes="public"/>
    </person>
    <person id="ped129" depart="34.50" type="ped_pedestrian">
        <personTrip from="-191320756" to="193479984#1" modes="public"/>
    </person>
    <person id="ped130" depart="34.76" type="ped_pedestrian">
        <personTrip from="192714141#24" to="192714141#12" modes="public"/>
    </person>
    <person id="ped131" depart="35.03" type="ped_pedestrian">
        <personTrip from="-192392145#0" to="-190383380#0" modes="public"/>
    </person>
    <person id="ped132" depart="35.30" type="ped_pedestrian">
        <personTrip from="191600583#1" to="191085047#1" modes="public"/>
    </person>
    <person id="ped133" depart="35.56" type="ped_pedestrian">
        <personTrip from="1310001252" to="693223584" modes="public"/>
    </person>
    <person id="ped134" depart="35.83" type="ped_pedestrian">
        <personTrip from="190383368" to="-1019946384" modes="public"/>
    </person>
    <person id="ped135" depart="36.10" type="ped_pedestrian">
        <personTrip from="191360655" to="-191359661#0" modes="public"/>
    </person>
    <person id="ped136" depart="36.37" type="ped_pedestrian">
        <personTrip from="190597776" to="193657756" modes="public"/>
    </person>
    <person id="ped137" depart="36.63" type="ped_pedestrian">
        <personTrip from="-189921788#1" to="-1273335015" modes="public"/>
    </person>
    <person id="ped138" depart="36.90" type="ped_pedestrian">
        <personTrip from="-1234880098" to="1181267399" modes="public"/>
    </person>
    <person id="ped139" depart="37.17" type="ped_pedestrian">
        <personTrip from="-191322106" to="1243413969#0" modes="public"/>
    </person>
    <person id="ped140" depart="37.44" type="ped_pedestrian">
        <personTrip from="191118884#0" to="-191084489#3" modes="public"/>
    </person>
    <person id="ped141" depart="37.70" type="ped_pedestrian">
        <personTrip from="189923091" to="-191320746#1" modes="public"/>
    </person>
    <person id="ped142" depart="37.97" type="ped_pedestrian">
        <personTrip from="1019992618" to="192928850#1" modes="public"/>
    </person>
    <person id="ped143" depart="38.24" type="ped_pedestrian">
        <personTrip from="191913401#1" to="-1209952371" modes="public"/>
    </person>
    <person id="ped144" depart="38.51" type="ped_pedestrian">
        <personTrip from="-193478724#1" to="-191324250" modes="public"/>
    </person>
    <person id="ped145" depart="38.77" type="ped_pedestrian">
        <personTrip from="-1019946360#1" to="191322083#2" modes="public"/>
    </person>
    <person id="ped146" depart="39.04" type="ped_pedestrian">
        <personTrip from="189923103" to="-191320734#2" modes="public"/>
    </person>
    <person id="ped147" depart="39.31" type="ped_pedestrian">
        <personTrip from="191150028#0" to="1179981788" modes="public"/>
    </person>
    <person id="ped148" depart="39.58" type="ped_pedestrian">
        <personTrip from="-193479979#5" to="-1019992627#1" modes="public"/>
    </person>
    <person id="ped149" depart="39.84" type="ped_pedestrian">
        <personTrip from="-1201238380" to="192717876#1" modes="public"/>
    </person>
    <person id="ped150" depart="40.11" type="ped_pedestrian">
        <personTrip from="192928297#1" to="1174245910" modes="public"/>
    </person>
    <person id="ped151" depart="40.38" type="ped_pedestrian">
        <personTrip from="191600584#3" to="1209958315#0" modes="public"/>
    </person>
    <person id="ped152" depart="40.65" type="ped_pedestrian">
        <personTrip from="-190362367" to="-153933320#1" modes="public"/>
    </person>
    <person id="ped153" depart="40.91" type="ped_pedestrian">
        <personTrip from="-191359724" to="192927634#1" modes="public"/>
    </person>
    <person id="ped154" depart="41.18" type="ped_pedestrian">
        <personTrip from="191357944" to="192062340#2" modes="public"/>
    </person>
    <person id="ped155" depart="41.45" type="ped_pedestrian">
        <personTrip from="192927634#1" to="-191089322" modes="public"/>
    </person>
    <person id="ped156" depart="41.72" type="ped_pedestrian">
        <personTrip from="-191231174#1" to="-1218448339#0" modes="public"/>
    </person>
    <person id="ped157" depart="41.98" type="ped_pedestrian">
        <personTrip from="191356877" to="192717879#1" modes="public"/>
    </person>
    <person id="ped158" depart="42.25" type="ped_pedestrian">
        <personTrip from="-193229884#1" to="150612587#5" modes="public"/>
    </person>
    <person id="ped159" depart="42.52" type="ped_pedestrian">
        <personTrip from="-190383365#1" to="193479977#0" modes="public"/>
    </person>
    <person id="ped160" depart="42.78" type="ped_pedestrian">
        <personTrip from="192227020" to="569067001" modes="public"/>
    </person>
    <person id="ped161" depart="43.05" type="ped_pedestrian">
        <personTrip from="191359731#0" to="192714141#7" modes="public"/>
    </person>
    <person id="ped162" depart="43.32" type="ped_pedestrian">
        <personTrip from="-1040457180" to="191138602" modes="public"/>
    </person>
    <person id="ped163" depart="43.59" type="ped_pedestrian">
        <personTrip from="-191600581#1" to="193479979#0" modes="public"/>
    </person>
    <person id="ped164" depart="43.85" type="ped_pedestrian">
        <personTrip from="191359671#2" to="192225433#2" modes="public"/>
    </person>
    <person id="ped165" depart="44.12" type="ped_pedestrian">
        <personTrip from="191359731#0" to="-191320759#5" modes="public"/>
    </person>
    <person id="ped166" depart="44.39" type="ped_pedestrian">
        <personTrip from="191356919#4" to="-1236768948" modes="public"/>
    </person>
    <person id="ped167" depart="44.66" type="ped_pedestrian">
        <personTrip from="192658619#1" to="192059904#0" modes="public"/>
    </person>
    <person id="ped168" depart="44.92" type="ped_pedestrian">
        <personTrip from="-191123091#1" to="191360652" modes="public"/>
    </person>
    <person id="ped169" depart="45.19" type="ped_pedestrian">
        <personTrip from="-630477387#4" to="-191359710#1" modes="public"/>
    </person>
    <person id="ped170" depart="45.46" type="ped_pedestrian">
        <personTrip from="191357941#0" to="-191129918#3" modes="public"/>
    </person>
    <person id="ped171" depart="45.73" type="ped_pedestrian">
        <personTrip from="-1038148467" to="-191061606#1" modes="public"/>
    </person>
    <person id="ped172" depart="45.99" type="ped_pedestrian">
        <personTrip from="-191561280#0" to="192226215#0" modes="public"/>
    </person>
    <person id="ped173" depart="46.26" type="ped_pedestrian">
        <personTrip from="247829624" to="-191324280" modes="public"/>
    </person>
    <person id="ped174" depart="46.53" type="ped_pedestrian">
        <personTrip from="190272866#0" to="-192928293#0" modes="public"/>
    </person>
    <person id="ped175" depart="46.80" type="ped_pedestrian">
        <personTrip from="689043099#1" to="115879796#1" modes="public"/>
    </person>
    <person id="ped176" depart="47.06" type="ped_pedestrian">
        <personTrip from="193659507" to="-1273317736" modes="public"/>
    </person>
    <person id="ped177" depart="47.33" type="ped_pedestrian">
        <personTrip from="363570969#1" to="-191033313#0" modes="public"/>
    </person>
    <person id="ped178" depart="47.60" type="ped_pedestrian">
        <personTrip from="237521322" to="-191320758#1" modes="public"/>
    </person>
    <person id="ped179" depart="47.87" type="ped_pedestrian">
        <personTrip from="-1236771546" to="-193657754" modes="public"/>
    </person>
    <person id="ped180" depart="48.13" type="ped_pedestrian">
        <personTrip from="191136597#1" to="-191359766" modes="public"/>
    </person>
    <person id="ped181" depart="48.40" type="ped_pedestrian">
        <personTrip from="1273317735" to="1065785682" modes="public"/>
    </person>
    <person id="ped182" depart="48.67" type="ped_pedestrian">
        <personTrip from="-192722671#0" to="1207957795" modes="public"/>
    </person>
    <person id="ped183" depart="48.94" type="ped_pedestrian">
        <personTrip from="-191318785" to="191089317#2" modes="public"/>
    </person>
    <person id="ped184" depart="49.20" type="ped_pedestrian">
        <personTrip from="-1019044747" to="193478512#0" modes="public"/>
    </person>
    <person id="ped185" depart="49.47" type="ped_pedestrian">
        <personTrip from="115879832#1" to="191118905" modes="public"/>
    </person>
    <person id="ped186" depart="49.74" type="ped_pedestrian">
        <personTrip from="191150029#2" to="191033285#1" modes="public"/>
    </person>
    <person id="ped187" depart="50.00" type="ped_pedestrian">
        <personTrip from="-192225433#0" to="-1199693217" modes="public"/>
    </person>
    <person id="ped188" depart="50.27" type="ped_pedestrian">
        <personTrip from="190597786#1" to="-191561444#0" modes="public"/>
    </person>
    <person id="ped189" depart="50.54" type="ped_pedestrian">
        <personTrip from="-191360642" to="191913404#3" modes="public"/>
    </person>
    <person id="ped190" depart="50.81" type="ped_pedestrian">
        <personTrip from="191118908#0" to="-191359665" modes="public"/>
    </person>
    <person id="ped191" depart="51.07" type="ped_pedestrian">
        <personTrip from="-191359728#3" to="-193230755#1" modes="public"/>
    </person>
    <person id="ped192" depart="51.34" type="ped_pedestrian">
        <personTrip from="-192928860#0" to="-191359638#2" modes="public"/>
    </person>
    <person id="ped193" depart="51.61" type="ped_pedestrian">
        <personTrip from="-153933320#0" to="-193477772" modes="public"/>
    </person>
    <person id="ped194" depart="51.88" type="ped_pedestrian">
        <personTrip from="193659511#2" to="191033313#1" modes="public"/>
    </person>
    <person id="ped195" depart="52.14" type="ped_pedestrian">